<?xml version="1.0" encoding="UTF-8"?>

<!-- generated on 2025-02-10 13:19:17 by Eclipse SUMO netedit Version 1.19.0
<configuration xmlns:xsi="http://www.w3.org/2001/XMLSchema-instance" xsi:noNamespaceSchemaLocation="http://sumo.dlr.de/xsd/neteditConfiguration.xsd">

    <input>
        <sumo-net-file value="C:\PTL\SUMO\SUMOconfig\Ayalon_Casestudy5.net.xml"/>
    </input>

    <output>
        <output-file value="C:\PTL\SUMO\SUMOconfig\Ayalon_Casestudy5.net.xml"/>
    </output>

    <processing>
        <geometry.min-radius.fix.railways value="false"/>
        <geometry.max-grade.fix value="false"/>
        <offset.disable-normalization value="true"/>
        <lefthand value="0"/>
    </processing>

    <junctions>
        <no-turnarounds value="true"/>
        <junctions.corner-detail value="5"/>
        <junctions.limit-turn-speed value="5.50"/>
        <rectangular-lane-cut value="0"/>
    </junctions>

    <pedestrian>
        <walkingareas value="0"/>
    </pedestrian>

</configuration>
-->

<net version="1.16" junctionCornerDetail="5" limitTurnSpeed="5.50" xmlns:xsi="http://www.w3.org/2001/XMLSchema-instance" xsi:noNamespaceSchemaLocation="http://sumo.dlr.de/xsd/net_file.xsd">

    <location netOffset="0.00,0.00" convBoundary="-500.00,-3.40,490.00,0.00" origBoundary="-10000000000.00,-10000000000.00,10000000000.00,10000000000.00" projParameter="!"/>

    <edge id=":J0_0" function="internal">
        <lane id=":J0_0_0" index="0" speed="25.00" length="0.10" shape="-100.00,-14.40 -100.00,-14.40"/>
        <lane id=":J0_0_1" index="1" speed="25.00" length="0.10" shape="-100.00,-11.20 -100.00,-11.20"/>
        <lane id=":J0_0_2" index="2" speed="25.00" length="0.10" shape="-100.00,-8.00 -100.00,-8.00"/>
        <lane id=":J0_0_3" index="3" speed="25.00" length="0.10" shape="-100.00,-4.80 -100.00,-4.80"/>
        <lane id=":J0_0_4" index="4" allow="private bus" speed="25.00" length="0.10" shape="-100.00,-1.60 -100.00,-1.60"/>
    </edge>
    <edge id=":J1_0" function="internal">
        <lane id=":J1_0_0" index="0" speed="23.61" length="8.00" shape="266.00,-11.20 274.00,-11.20"/>
        <lane id=":J1_0_1" index="1" speed="23.61" length="8.00" shape="266.00,-8.00 274.00,-8.00"/>
        <lane id=":J1_0_2" index="2" speed="23.61" length="8.00" shape="266.00,-4.80 274.00,-4.80"/>
        <lane id=":J1_0_3" index="3" allow="private bus" speed="23.61" length="8.00" shape="266.00,-1.60 274.00,-1.60"/>
    </edge>
    <edge id=":J2_0" function="internal">
        <lane id=":J2_0_0" index="0" speed="22.22" length="8.00" shape="386.00,-11.20 394.00,-11.40"/>
        <lane id=":J2_0_1" index="1" speed="22.22" length="8.00" shape="386.00,-8.00 394.00,-8.20"/>
        <lane id=":J2_0_2" index="2" speed="22.22" length="8.00" shape="386.00,-4.80 394.00,-5.00"/>
    </edge>

    <edge id="E0" from="J0" to="J1" priority="-1">
        <lane id="E0_0" index="0" speed="25.00" length="366.00" shape="-100.00,-14.40 266.00,-14.40"/>
        <lane id="E0_1" index="1" speed="25.00" length="366.00" shape="-100.00,-11.20 266.00,-11.20"/>
        <lane id="E0_2" index="2" speed="25.00" length="366.00" shape="-100.00,-8.00 266.00,-8.00"/>
        <lane id="E0_3" index="3" speed="25.00" length="366.00" shape="-100.00,-4.80 266.00,-4.80"/>
        <lane id="E0_4" index="4" allow="private bus" speed="25.00" length="366.00" shape="-100.00,-1.60 266.00,-1.60"/>
    </edge>
    <edge id="E1" from="J1" to="J2" priority="-1">
        <lane id="E1_0" index="0" speed="22.22" length="112.00" shape="274.00,-11.20 386.00,-11.20"/>
        <lane id="E1_1" index="1" speed="22.22" length="112.00" shape="274.00,-8.00 386.00,-8.00"/>
        <lane id="E1_2" index="2" speed="22.22" length="112.00" shape="274.00,-4.80 386.00,-4.80"/>
        <lane id="E1_3" index="3" allow="private bus" speed="22.22" length="112.00" shape="274.00,-1.60 386.00,-1.60"/>
    </edge>
    <edge id="E2" from="J2" to="J3" priority="-1" shape="390.00,-3.40 490.00,-3.40">
        <lane id="E2_0" index="0" speed="22.22" length="96.00" shape="394.00,-11.40 490.00,-11.40"/>
        <lane id="E2_1" index="1" speed="22.22" length="96.00" shape="394.00,-8.20 490.00,-8.20"/>
        <lane id="E2_2" index="2" speed="22.22" length="96.00" shape="394.00,-5.00 490.00,-5.00"/>
    </edge>
    <edge id="E7" from="J10" to="J0" priority="-1">
        <lane id="E7_0" index="0" speed="25.00" length="400.00" shape="-500.00,-14.40 -100.00,-14.40"/>
        <lane id="E7_1" index="1" speed="25.00" length="400.00" shape="-500.00,-11.20 -100.00,-11.20"/>
        <lane id="E7_2" index="2" speed="25.00" length="400.00" shape="-500.00,-8.00 -100.00,-8.00"/>
        <lane id="E7_3" index="3" speed="25.00" length="400.00" shape="-500.00,-4.80 -100.00,-4.80"/>
        <lane id="E7_4" index="4" speed="25.00" length="400.00" shape="-500.00,-1.60 -100.00,-1.60"/>
    </edge>

    <junction id="J0" type="priority" x="-100.00" y="0.00" incLanes="E7_0 E7_1 E7_2 E7_3 E7_4" intLanes=":J0_0_0 :J0_0_1 :J0_0_2 :J0_0_3 :J0_0_4" shape="-100.00,0.00 -100.00,-16.00 -100.00,0.00">
        <request index="0" response="00000" foes="00000" cont="0"/>
        <request index="1" response="00000" foes="00000" cont="0"/>
        <request index="2" response="00000" foes="00000" cont="0"/>
        <request index="3" response="00000" foes="00000" cont="0"/>
        <request index="4" response="00000" foes="00000" cont="0"/>
    </junction>
    <junction id="J1" type="priority" x="270.00" y="0.00" incLanes="E0_0 E0_1 E0_2 E0_3 E0_4" intLanes=":J1_0_0 :J1_0_1 :J1_0_2 :J1_0_3" shape="274.00,0.00 274.00,-12.80 270.97,-13.63 269.03,-15.17 267.79,-15.76 266.00,-16.00 266.00,0.00">
        <request index="0" response="0000" foes="0000" cont="0"/>
        <request index="1" response="0000" foes="0000" cont="0"/>
        <request index="2" response="0000" foes="0000" cont="0"/>
        <request index="3" response="0000" foes="0000" cont="0"/>
    </junction>
    <junction id="J10" type="dead_end" x="-500.00" y="0.00" incLanes="" intLanes="" shape="-500.00,0.00 -500.00,-16.00"/>
    <junction id="J2" type="priority" x="390.00" y="0.00" incLanes="E1_0 E1_1 E1_2 E1_3" intLanes=":J2_0_0 :J2_0_1 :J2_0_2" shape="394.00,-3.40 394.00,-13.00 386.00,-12.80 386.00,0.00 389.04,-0.88 390.96,-2.52 392.20,-3.15">
        <request index="0" response="000" foes="000" cont="0"/>
        <request index="1" response="000" foes="000" cont="0"/>
        <request index="2" response="000" foes="000" cont="0"/>
    </junction>
    <junction id="J3" type="dead_end" x="490.00" y="-3.40" incLanes="E2_0 E2_1 E2_2" intLanes="" shape="490.00,-13.00 490.00,-3.40"/>

    <connection from="E0" to="E1" fromLane="1" toLane="0" via=":J1_0_0" dir="s" state="M"/>
    <connection from="E0" to="E1" fromLane="2" toLane="1" via=":J1_0_1" dir="s" state="M"/>
    <connection from="E0" to="E1" fromLane="3" toLane="2" via=":J1_0_2" dir="s" state="M"/>
    <connection from="E0" to="E1" fromLane="4" toLane="3" via=":J1_0_3" dir="s" state="M"/>
    <connection from="E1" to="E2" fromLane="0" toLane="0" via=":J2_0_0" dir="s" state="M"/>
    <connection from="E1" to="E2" fromLane="1" toLane="1" via=":J2_0_1" dir="s" state="M"/>
    <connection from="E1" to="E2" fromLane="2" toLane="2" via=":J2_0_2" dir="s" state="M"/>
    <connection from="E7" to="E0" fromLane="0" toLane="0" via=":J0_0_0" dir="s" state="M"/>
    <connection from="E7" to="E0" fromLane="1" toLane="1" via=":J0_0_1" dir="s" state="M"/>
    <connection from="E7" to="E0" fromLane="2" toLane="2" via=":J0_0_2" dir="s" state="M"/>
    <connection from="E7" to="E0" fromLane="3" toLane="3" via=":J0_0_3" dir="s" state="M"/>
    <connection from="E7" to="E0" fromLane="4" toLane="4" via=":J0_0_4" dir="s" state="M"/>

    <connection from=":J0_0" to="E0" fromLane="0" toLane="0" dir="s" state="M"/>
    <connection from=":J0_0" to="E0" fromLane="1" toLane="1" dir="s" state="M"/>
    <connection from=":J0_0" to="E0" fromLane="2" toLane="2" dir="s" state="M"/>
    <connection from=":J0_0" to="E0" fromLane="3" toLane="3" dir="s" state="M"/>
    <connection from=":J0_0" to="E0" fromLane="4" toLane="4" dir="s" state="M"/>
    <connection from=":J1_0" to="E1" fromLane="0" toLane="0" dir="s" state="M"/>
    <connection from=":J1_0" to="E1" fromLane="1" toLane="1" dir="s" state="M"/>
    <connection from=":J1_0" to="E1" fromLane="2" toLane="2" dir="s" state="M"/>
    <connection from=":J1_0" to="E1" fromLane="3" toLane="3" dir="s" state="M"/>
    <connection from=":J2_0" to="E2" fromLane="0" toLane="0" dir="s" state="M"/>
    <connection from=":J2_0" to="E2" fromLane="1" toLane="1" dir="s" state="M"/>
    <connection from=":J2_0" to="E2" fromLane="2" toLane="2" dir="s" state="M"/>

</net>
