<?xml version="1.0" encoding="UTF-8"?>

<!-- generated on 2024-10-24 04:07:56 by Eclipse SUMO netedit Version 1.19.0
<configuration xmlns:xsi="http://www.w3.org/2001/XMLSchema-instance" xsi:noNamespaceSchemaLocation="http://sumo.dlr.de/xsd/neteditConfiguration.xsd">

    <input>
        <sumo-net-file value="C:\PTL\SUMO\SUMOconfig\network_new.net.xml"/>
    </input>

    <output>
        <output-file value="C:\PTL\SUMO\SUMOconfig\network_new.net.xml"/>
    </output>

    <processing>
        <geometry.min-radius.fix.railways value="false"/>
        <geometry.max-grade.fix value="false"/>
        <offset.disable-normalization value="true"/>
        <lefthand value="0"/>
    </processing>

    <junctions>
        <no-turnarounds value="true"/>
        <junctions.corner-detail value="5"/>
        <junctions.limit-turn-speed value="5.50"/>
        <rectangular-lane-cut value="0"/>
    </junctions>

    <pedestrian>
        <walkingareas value="0"/>
    </pedestrian>

</configuration>
-->

<net version="1.16" junctionCornerDetail="5" limitTurnSpeed="5.50" xmlns:xsi="http://www.w3.org/2001/XMLSchema-instance" xsi:noNamespaceSchemaLocation="http://sumo.dlr.de/xsd/net_file.xsd">

    <location netOffset="0.00,0.00" convBoundary="-500.00,-50.00,4000.00,0.00" origBoundary="-10000000000.00,-10000000000.00,10000000000.00,10000000000.00" projParameter="!"/>

    <edge id=":J2_0" function="internal">
        <lane id=":J2_0_0" index="0" speed="22.50" length="8.19" shape="496.03,-14.90 498.44,-14.61 500.10,-14.46 501.77,-14.41 504.20,-14.40"/>
    </edge>
    <edge id=":J2_1" function="internal">
        <lane id=":J2_1_0" index="0" speed="25.00" length="8.39" shape="496.00,-11.20 504.20,-11.20"/>
        <lane id=":J2_1_1" index="1" speed="25.00" length="8.39" shape="496.00,-8.00 504.20,-8.00"/>
        <lane id=":J2_1_2" index="2" speed="25.00" length="8.39" shape="496.00,-4.80 504.20,-4.80"/>
        <lane id=":J2_1_3" index="3" allow="private bus" speed="25.00" length="8.39" shape="496.00,-4.80 498.52,-4.30 500.10,-3.20 501.68,-2.10 504.20,-1.60"/>
    </edge>
    <edge id=":J3_0" function="internal">
        <lane id=":J3_0_0" index="0" speed="10.28" length="3.71" shape="1023.34,-14.40 1024.44,-14.42 1025.20,-14.51 1025.91,-14.76 1026.90,-15.24"/>
    </edge>
    <edge id=":J3_1" function="internal">
        <lane id=":J3_1_0" index="0" speed="25.00" length="3.76" shape="1023.34,-11.20 1027.10,-11.20"/>
        <lane id=":J3_1_1" index="1" speed="25.00" length="3.76" shape="1023.34,-8.00 1027.10,-8.00"/>
        <lane id=":J3_1_2" index="2" speed="25.00" length="3.76" shape="1023.34,-4.80 1027.10,-4.80"/>
        <lane id=":J3_1_3" index="3" allow="private bus" speed="25.00" length="3.76" shape="1023.34,-1.60 1027.10,-1.60"/>
    </edge>
    <edge id=":J4_0" function="internal">
        <lane id=":J4_0_0" index="0" speed="22.50" length="3.20" shape="1498.51,-14.60 1499.45,-14.48 1500.10,-14.42 1500.75,-14.40 1501.70,-14.40"/>
    </edge>
    <edge id=":J4_1" function="internal">
        <lane id=":J4_1_0" index="0" speed="25.00" length="3.20" shape="1498.50,-11.20 1501.70,-11.20"/>
        <lane id=":J4_1_1" index="1" speed="25.00" length="3.20" shape="1498.50,-8.00 1501.70,-8.00"/>
        <lane id=":J4_1_2" index="2" speed="25.00" length="3.20" shape="1498.50,-4.80 1501.70,-4.80"/>
        <lane id=":J4_1_3" index="3" allow="private bus" speed="25.00" length="3.20" shape="1498.50,-1.60 1501.70,-1.60"/>
    </edge>
    <edge id=":J5_0" function="internal">
        <lane id=":J5_0_0" index="0" speed="10.28" length="3.71" shape="2023.34,-14.40 2024.44,-14.42 2025.20,-14.51 2025.91,-14.76 2026.90,-15.24"/>
    </edge>
    <edge id=":J5_1" function="internal">
        <lane id=":J5_1_0" index="0" speed="25.00" length="3.76" shape="2023.34,-11.20 2027.10,-11.20"/>
        <lane id=":J5_1_1" index="1" speed="25.00" length="3.76" shape="2023.34,-8.00 2027.10,-8.00"/>
        <lane id=":J5_1_2" index="2" speed="25.00" length="3.76" shape="2023.34,-4.80 2027.10,-4.80"/>
        <lane id=":J5_1_3" index="3" allow="private bus" speed="25.00" length="3.76" shape="2023.34,-1.60 2027.10,-1.60"/>
    </edge>
    <edge id=":J6_0" function="internal">
        <lane id=":J6_0_0" index="0" speed="22.50" length="3.26" shape="2421.72,-14.67 2422.68,-14.51 2423.34,-14.43 2424.00,-14.40 2424.96,-14.40"/>
    </edge>
    <edge id=":J6_1" function="internal">
        <lane id=":J6_1_0" index="0" speed="25.00" length="3.26" shape="2421.70,-11.20 2424.96,-11.20"/>
        <lane id=":J6_1_1" index="1" speed="25.00" length="3.26" shape="2421.70,-8.00 2424.96,-8.00"/>
        <lane id=":J6_1_2" index="2" speed="25.00" length="3.26" shape="2421.70,-4.80 2424.96,-4.80"/>
        <lane id=":J6_1_3" index="3" allow="private bus" speed="25.00" length="3.26" shape="2421.70,-1.60 2424.96,-1.60"/>
    </edge>
    <edge id=":J7_0" function="internal">
        <lane id=":J7_0_0" index="0" speed="10.28" length="3.71" shape="3023.34,-14.40 3024.44,-14.42 3025.20,-14.51 3025.91,-14.76 3026.90,-15.24"/>
    </edge>
    <edge id=":J7_1" function="internal">
        <lane id=":J7_1_0" index="0" speed="25.00" length="3.76" shape="3023.34,-11.20 3027.10,-11.20"/>
        <lane id=":J7_1_1" index="1" speed="25.00" length="3.76" shape="3023.34,-8.00 3027.10,-8.00"/>
        <lane id=":J7_1_2" index="2" speed="25.00" length="3.76" shape="3023.34,-4.80 3027.10,-4.80"/>
        <lane id=":J7_1_3" index="3" allow="private bus" speed="25.00" length="3.76" shape="3023.34,-1.60 3027.10,-1.60"/>
    </edge>
    <edge id=":J8_0" function="internal">
        <lane id=":J8_0_0" index="0" speed="25.00" length="8.00" shape="3496.00,-11.20 3504.00,-11.40"/>
        <lane id=":J8_0_1" index="1" speed="25.00" length="8.00" shape="3496.00,-8.00 3504.00,-8.20"/>
        <lane id=":J8_0_2" index="2" speed="25.00" length="8.00" shape="3496.00,-4.80 3504.00,-5.00"/>
    </edge>

    <edge id="E0" from="J1" to="J2" priority="-1" shape="-500.00,-3.20 500.00,-3.20">
        <lane id="E0_0" index="0" speed="25.00" length="996.00" shape="-500.00,-11.20 496.00,-11.20"/>
        <lane id="E0_1" index="1" speed="25.00" length="996.00" shape="-500.00,-8.00 496.00,-8.00"/>
        <lane id="E0_2" index="2" speed="25.00" length="996.00" shape="-500.00,-4.80 496.00,-4.80"/>
    </edge>
    <edge id="E1" from="J2" to="J3" priority="-1">
        <lane id="E1_0" index="0" speed="25.00" length="519.15" acceleration="1" shape="504.20,-14.40 1023.34,-14.40"/>
        <lane id="E1_1" index="1" speed="25.00" length="519.15" shape="504.20,-11.20 1023.34,-11.20"/>
        <lane id="E1_2" index="2" speed="25.00" length="519.15" shape="504.20,-8.00 1023.34,-8.00"/>
        <lane id="E1_3" index="3" speed="25.00" length="519.15" shape="504.20,-4.80 1023.34,-4.80"/>
        <lane id="E1_4" index="4" allow="private bus" speed="25.00" length="519.15" shape="504.20,-1.60 1023.34,-1.60"/>
    </edge>
    <edge id="E2" from="J3" to="J4" priority="-1">
        <lane id="E2_0" index="0" speed="25.00" length="471.40" shape="1027.10,-11.20 1498.50,-11.20"/>
        <lane id="E2_1" index="1" speed="25.00" length="471.40" shape="1027.10,-8.00 1498.50,-8.00"/>
        <lane id="E2_2" index="2" speed="25.00" length="471.40" shape="1027.10,-4.80 1498.50,-4.80"/>
        <lane id="E2_3" index="3" allow="private bus" speed="25.00" length="471.40" shape="1027.10,-1.60 1498.50,-1.60"/>
    </edge>
    <edge id="E3" from="J4" to="J5" priority="-1">
        <lane id="E3_0" index="0" speed="25.00" length="521.65" acceleration="1" shape="1501.70,-14.40 2023.34,-14.40"/>
        <lane id="E3_1" index="1" speed="25.00" length="521.65" shape="1501.70,-11.20 2023.34,-11.20"/>
        <lane id="E3_2" index="2" speed="25.00" length="521.65" shape="1501.70,-8.00 2023.34,-8.00"/>
        <lane id="E3_3" index="3" speed="25.00" length="521.65" shape="1501.70,-4.80 2023.34,-4.80"/>
        <lane id="E3_4" index="4" allow="private bus" speed="25.00" length="521.65" shape="1501.70,-1.60 2023.34,-1.60"/>
    </edge>
    <edge id="E4" from="J5" to="J6" priority="-1">
        <lane id="E4_0" index="0" speed="25.00" length="394.60" shape="2027.10,-11.20 2421.70,-11.20"/>
        <lane id="E4_1" index="1" speed="25.00" length="394.60" shape="2027.10,-8.00 2421.70,-8.00"/>
        <lane id="E4_2" index="2" speed="25.00" length="394.60" shape="2027.10,-4.80 2421.70,-4.80"/>
        <lane id="E4_3" index="3" allow="private bus" speed="25.00" length="394.60" shape="2027.10,-1.60 2421.70,-1.60"/>
    </edge>
    <edge id="E5" from="J6" to="J7" priority="-1">
        <lane id="E5_0" index="0" speed="25.00" length="598.38" acceleration="1" shape="2424.96,-14.40 3023.34,-14.40"/>
        <lane id="E5_1" index="1" speed="25.00" length="598.38" shape="2424.96,-11.20 3023.34,-11.20"/>
        <lane id="E5_2" index="2" speed="25.00" length="598.38" shape="2424.96,-8.00 3023.34,-8.00"/>
        <lane id="E5_3" index="3" speed="25.00" length="598.38" shape="2424.96,-4.80 3023.34,-4.80"/>
        <lane id="E5_4" index="4" allow="private bus" speed="25.00" length="598.38" shape="2424.96,-1.60 3023.34,-1.60"/>
    </edge>
    <edge id="E6" from="J7" to="J8" priority="-1">
        <lane id="E6_0" index="0" speed="25.00" length="468.90" shape="3027.10,-11.20 3496.00,-11.20"/>
        <lane id="E6_1" index="1" speed="25.00" length="468.90" shape="3027.10,-8.00 3496.00,-8.00"/>
        <lane id="E6_2" index="2" speed="25.00" length="468.90" shape="3027.10,-4.80 3496.00,-4.80"/>
        <lane id="E6_3" index="3" allow="private bus" speed="25.00" length="468.90" shape="3027.10,-1.60 3496.00,-1.60"/>
    </edge>
    <edge id="E7" from="J8" to="J9" priority="-1" shape="3500.00,-3.40 4000.00,-3.40">
        <lane id="E7_0" index="0" speed="25.00" length="496.00" shape="3504.00,-11.40 4000.00,-11.40"/>
        <lane id="E7_1" index="1" speed="25.00" length="496.00" shape="3504.00,-8.20 4000.00,-8.20"/>
        <lane id="E7_2" index="2" speed="25.00" length="496.00" shape="3504.00,-5.00 4000.00,-5.00"/>
    </edge>
    <edge id="Ei1" from="i1" to="J2" priority="-1" shape="200.00,-50.00 500.00,-12.80">
        <lane id="Ei1_0" index="0" speed="20.00" length="298.10" shape="200.20,-51.59 496.03,-14.90"/>
    </edge>
    <edge id="Ei2" from="i2" to="J4" priority="-1" shape="1200.00,-50.00 1500.00,-12.80">
        <lane id="Ei2_0" index="0" speed="20.00" length="300.60" shape="1200.20,-51.59 1498.51,-14.60"/>
    </edge>
    <edge id="Ei3" from="i3" to="J6" priority="-1">
        <lane id="Ei3_0" index="0" speed="20.00" length="224.51" shape="2200.26,-51.58 2421.72,-14.67"/>
    </edge>
    <edge id="Eo1" from="J3" to="o1" priority="-1">
        <lane id="Eo1_0" index="0" speed="20.00" length="80.93" shape="1026.90,-15.24 1099.28,-51.43"/>
    </edge>
    <edge id="Eo2" from="J5" to="o2" priority="-1">
        <lane id="Eo2_0" index="0" speed="20.00" length="80.93" shape="2026.90,-15.24 2099.28,-51.43"/>
    </edge>
    <edge id="Eo3" from="J7" to="o3" priority="-1">
        <lane id="Eo3_0" index="0" speed="20.00" length="80.93" shape="3026.90,-15.24 3099.28,-51.43"/>
    </edge>

    <junction id="J1" type="dead_end" x="-500.00" y="-0.03" incLanes="" intLanes="" shape="-500.00,-3.20 -500.00,-12.80"/>
    <junction id="J2" type="unregulated" x="500.00" y="0.00" incLanes="Ei1_0 E0_0 E0_1 E0_2" intLanes=":J2_0_0 :J2_1_0 :J2_1_1 :J2_1_2 :J2_1_3" shape="504.20,0.00 504.20,-16.00 501.24,-16.02 500.20,-16.06 499.17,-16.15 497.92,-16.29 496.23,-16.49 495.83,-13.32 496.00,-12.80 496.00,-3.20 499.10,-2.37 501.09,-0.83 502.37,-0.24"/>
    <junction id="J3" type="priority" x="1000.00" y="0.00" incLanes="E1_0 E1_1 E1_2 E1_3 E1_4" intLanes=":J3_0_0 :J3_1_0 :J3_1_1 :J3_1_2 :J3_1_3" shape="1027.10,0.00 1027.10,-12.80 1026.49,-12.91 1026.48,-13.05 1026.66,-13.25 1027.04,-13.50 1027.62,-13.81 1026.19,-16.67 1025.19,-16.21 1024.82,-16.09 1024.44,-16.03 1023.97,-16.00 1023.34,-16.00 1023.34,0.00">
        <request index="0" response="00000" foes="00000" cont="0"/>
        <request index="1" response="00000" foes="00000" cont="0"/>
        <request index="2" response="00000" foes="00000" cont="0"/>
        <request index="3" response="00000" foes="00000" cont="0"/>
        <request index="4" response="00000" foes="00000" cont="0"/>
    </junction>
    <junction id="J4" type="unregulated" x="1500.00" y="0.00" incLanes="Ei2_0 E2_0 E2_1 E2_2 E2_3" intLanes=":J4_0_0 :J4_1_0 :J4_1_1 :J4_1_2 :J4_1_3" shape="1501.70,0.00 1501.70,-16.00 1500.59,-16.01 1500.20,-16.02 1499.81,-16.05 1499.34,-16.11 1498.71,-16.18 1498.32,-13.01 1498.50,-12.80 1498.50,0.00"/>
    <junction id="J5" type="priority" x="2000.00" y="0.00" incLanes="E3_0 E3_1 E3_2 E3_3 E3_4" intLanes=":J5_0_0 :J5_1_0 :J5_1_1 :J5_1_2 :J5_1_3" shape="2027.10,0.00 2027.10,-12.80 2026.49,-12.91 2026.48,-13.05 2026.66,-13.25 2027.04,-13.50 2027.62,-13.81 2026.19,-16.67 2025.19,-16.21 2024.82,-16.09 2024.44,-16.03 2023.97,-16.00 2023.34,-16.00 2023.34,0.00">
        <request index="0" response="00000" foes="00000" cont="0"/>
        <request index="1" response="00000" foes="00000" cont="0"/>
        <request index="2" response="00000" foes="00000" cont="0"/>
        <request index="3" response="00000" foes="00000" cont="0"/>
        <request index="4" response="00000" foes="00000" cont="0"/>
    </junction>
    <junction id="J6" type="unregulated" x="2500.00" y="0.00" incLanes="Ei3_0 E4_0 E4_1 E4_2 E4_3" intLanes=":J6_0_0 :J6_1_0 :J6_1_1 :J6_1_2 :J6_1_3" shape="2424.96,0.00 2424.96,-16.00 2423.86,-16.01 2423.47,-16.03 2423.08,-16.07 2422.61,-16.14 2421.99,-16.25 2421.46,-13.09 2421.70,-12.80 2421.70,0.00"/>
    <junction id="J7" type="priority" x="3000.00" y="0.00" incLanes="E5_0 E5_1 E5_2 E5_3 E5_4" intLanes=":J7_0_0 :J7_1_0 :J7_1_1 :J7_1_2 :J7_1_3" shape="3027.10,0.00 3027.10,-12.80 3026.49,-12.91 3026.48,-13.05 3026.66,-13.25 3027.04,-13.50 3027.62,-13.81 3026.19,-16.67 3025.19,-16.21 3024.82,-16.09 3024.44,-16.03 3023.97,-16.00 3023.34,-16.00 3023.34,0.00">
        <request index="0" response="00000" foes="00000" cont="0"/>
        <request index="1" response="00000" foes="00000" cont="0"/>
        <request index="2" response="00000" foes="00000" cont="0"/>
        <request index="3" response="00000" foes="00000" cont="0"/>
        <request index="4" response="00000" foes="00000" cont="0"/>
    </junction>
    <junction id="J8" type="priority" x="3500.00" y="0.00" incLanes="E6_0 E6_1 E6_2 E6_3" intLanes=":J8_0_0 :J8_0_1 :J8_0_2" shape="3504.00,-3.40 3504.00,-13.00 3496.00,-12.80 3496.00,0.00 3499.04,-0.88 3500.96,-2.52 3502.20,-3.15">
        <request index="0" response="000" foes="000" cont="0"/>
        <request index="1" response="000" foes="000" cont="0"/>
        <request index="2" response="000" foes="000" cont="0"/>
    </junction>
    <junction id="J9" type="dead_end" x="4000.00" y="0.00" incLanes="E7_0 E7_1 E7_2" intLanes="" shape="4000.00,-9.80 4000.00,-3.40" customShape="1"/>
    <junction id="i1" type="dead_end" x="200.00" y="-50.00" incLanes="" intLanes="" shape="200.00,-50.00 200.39,-53.18"/>
    <junction id="i2" type="dead_end" x="1200.00" y="-50.00" incLanes="" intLanes="" shape="1200.00,-50.00 1200.39,-53.18"/>
    <junction id="i3" type="dead_end" x="2200.00" y="-50.00" incLanes="" intLanes="" shape="2200.00,-50.00 2200.53,-53.16"/>
    <junction id="o1" type="dead_end" x="1100.00" y="-50.00" incLanes="Eo1_0" intLanes="" shape="1098.57,-52.86 1100.00,-50.00"/>
    <junction id="o2" type="dead_end" x="2100.00" y="-50.00" incLanes="Eo2_0" intLanes="" shape="2098.57,-52.86 2100.00,-50.00"/>
    <junction id="o3" type="dead_end" x="3100.00" y="-50.00" incLanes="Eo3_0" intLanes="" shape="3098.57,-52.86 3100.00,-50.00"/>

    <connection from="E0" to="E1" fromLane="0" toLane="1" via=":J2_1_0" dir="s" state="M"/>
    <connection from="E0" to="E1" fromLane="1" toLane="2" via=":J2_1_1" dir="s" state="M"/>
    <connection from="E0" to="E1" fromLane="2" toLane="3" via=":J2_1_2" dir="s" state="M"/>
    <connection from="E0" to="E1" fromLane="2" toLane="4" via=":J2_1_3" dir="s" state="M"/>
    <connection from="E1" to="Eo1" fromLane="0" toLane="0" via=":J3_0_0" dir="R" state="M"/>
    <connection from="E1" to="E2" fromLane="1" toLane="0" via=":J3_1_0" dir="s" state="M"/>
    <connection from="E1" to="E2" fromLane="2" toLane="1" via=":J3_1_1" dir="s" state="M"/>
    <connection from="E1" to="E2" fromLane="3" toLane="2" via=":J3_1_2" dir="s" state="M"/>
    <connection from="E1" to="E2" fromLane="4" toLane="3" via=":J3_1_3" dir="s" state="M"/>
    <connection from="E2" to="E3" fromLane="0" toLane="1" via=":J4_1_0" dir="s" state="M"/>
    <connection from="E2" to="E3" fromLane="1" toLane="2" via=":J4_1_1" dir="s" state="M"/>
    <connection from="E2" to="E3" fromLane="2" toLane="3" via=":J4_1_2" dir="s" state="M"/>
    <connection from="E2" to="E3" fromLane="3" toLane="4" via=":J4_1_3" dir="s" state="M"/>
    <connection from="E3" to="Eo2" fromLane="0" toLane="0" via=":J5_0_0" dir="R" state="M"/>
    <connection from="E3" to="E4" fromLane="1" toLane="0" via=":J5_1_0" dir="s" state="M"/>
    <connection from="E3" to="E4" fromLane="2" toLane="1" via=":J5_1_1" dir="s" state="M"/>
    <connection from="E3" to="E4" fromLane="3" toLane="2" via=":J5_1_2" dir="s" state="M"/>
    <connection from="E3" to="E4" fromLane="4" toLane="3" via=":J5_1_3" dir="s" state="M"/>
    <connection from="E4" to="E5" fromLane="0" toLane="1" via=":J6_1_0" dir="s" state="M"/>
    <connection from="E4" to="E5" fromLane="1" toLane="2" via=":J6_1_1" dir="s" state="M"/>
    <connection from="E4" to="E5" fromLane="2" toLane="3" via=":J6_1_2" dir="s" state="M"/>
    <connection from="E4" to="E5" fromLane="3" toLane="4" via=":J6_1_3" dir="s" state="M"/>
    <connection from="E5" to="Eo3" fromLane="0" toLane="0" via=":J7_0_0" dir="R" state="M"/>
    <connection from="E5" to="E6" fromLane="1" toLane="0" via=":J7_1_0" dir="s" state="M"/>
    <connection from="E5" to="E6" fromLane="2" toLane="1" via=":J7_1_1" dir="s" state="M"/>
    <connection from="E5" to="E6" fromLane="3" toLane="2" via=":J7_1_2" dir="s" state="M"/>
    <connection from="E5" to="E6" fromLane="4" toLane="3" via=":J7_1_3" dir="s" state="M"/>
    <connection from="E6" to="E7" fromLane="0" toLane="0" via=":J8_0_0" dir="s" state="M"/>
    <connection from="E6" to="E7" fromLane="1" toLane="1" via=":J8_0_1" dir="s" state="M"/>
    <connection from="E6" to="E7" fromLane="2" toLane="2" via=":J8_0_2" dir="s" state="M"/>
    <connection from="Ei1" to="E1" fromLane="0" toLane="0" via=":J2_0_0" dir="s" state="M"/>
    <connection from="Ei2" to="E3" fromLane="0" toLane="0" via=":J4_0_0" dir="s" state="M"/>
    <connection from="Ei3" to="E5" fromLane="0" toLane="0" via=":J6_0_0" dir="s" state="M"/>

    <connection from=":J2_0" to="E1" fromLane="0" toLane="0" dir="s" state="M"/>
    <connection from=":J2_1" to="E1" fromLane="0" toLane="1" dir="s" state="M"/>
    <connection from=":J2_1" to="E1" fromLane="1" toLane="2" dir="s" state="M"/>
    <connection from=":J2_1" to="E1" fromLane="2" toLane="3" dir="s" state="M"/>
    <connection from=":J2_1" to="E1" fromLane="3" toLane="4" dir="s" state="M"/>
    <connection from=":J3_0" to="Eo1" fromLane="0" toLane="0" dir="R" state="M"/>
    <connection from=":J3_1" to="E2" fromLane="0" toLane="0" dir="s" state="M"/>
    <connection from=":J3_1" to="E2" fromLane="1" toLane="1" dir="s" state="M"/>
    <connection from=":J3_1" to="E2" fromLane="2" toLane="2" dir="s" state="M"/>
    <connection from=":J3_1" to="E2" fromLane="3" toLane="3" dir="s" state="M"/>
    <connection from=":J4_0" to="E3" fromLane="0" toLane="0" dir="s" state="M"/>
    <connection from=":J4_1" to="E3" fromLane="0" toLane="1" dir="s" state="M"/>
    <connection from=":J4_1" to="E3" fromLane="1" toLane="2" dir="s" state="M"/>
    <connection from=":J4_1" to="E3" fromLane="2" toLane="3" dir="s" state="M"/>
    <connection from=":J4_1" to="E3" fromLane="3" toLane="4" dir="s" state="M"/>
    <connection from=":J5_0" to="Eo2" fromLane="0" toLane="0" dir="R" state="M"/>
    <connection from=":J5_1" to="E4" fromLane="0" toLane="0" dir="s" state="M"/>
    <connection from=":J5_1" to="E4" fromLane="1" toLane="1" dir="s" state="M"/>
    <connection from=":J5_1" to="E4" fromLane="2" toLane="2" dir="s" state="M"/>
    <connection from=":J5_1" to="E4" fromLane="3" toLane="3" dir="s" state="M"/>
    <connection from=":J6_0" to="E5" fromLane="0" toLane="0" dir="s" state="M"/>
    <connection from=":J6_1" to="E5" fromLane="0" toLane="1" dir="s" state="M"/>
    <connection from=":J6_1" to="E5" fromLane="1" toLane="2" dir="s" state="M"/>
    <connection from=":J6_1" to="E5" fromLane="2" toLane="3" dir="s" state="M"/>
    <connection from=":J6_1" to="E5" fromLane="3" toLane="4" dir="s" state="M"/>
    <connection from=":J7_0" to="Eo3" fromLane="0" toLane="0" dir="R" state="M"/>
    <connection from=":J7_1" to="E6" fromLane="0" toLane="0" dir="s" state="M"/>
    <connection from=":J7_1" to="E6" fromLane="1" toLane="1" dir="s" state="M"/>
    <connection from=":J7_1" to="E6" fromLane="2" toLane="2" dir="s" state="M"/>
    <connection from=":J7_1" to="E6" fromLane="3" toLane="3" dir="s" state="M"/>
    <connection from=":J8_0" to="E7" fromLane="0" toLane="0" dir="s" state="M"/>
    <connection from=":J8_0" to="E7" fromLane="1" toLane="1" dir="s" state="M"/>
    <connection from=":J8_0" to="E7" fromLane="2" toLane="2" dir="s" state="M"/>

</net>
