<?xml version="1.0" encoding="UTF-8"?>

<!-- generated on 2024-10-29 04:04:45 by Eclipse SUMO netedit Version 1.19.0
<configuration xmlns:xsi="http://www.w3.org/2001/XMLSchema-instance" xsi:noNamespaceSchemaLocation="http://sumo.dlr.de/xsd/neteditConfiguration.xsd">

    <input>
        <sumo-net-file value="C:\PTL\SUMO\SUMOconfig\network_toy_4.net.xml"/>
    </input>

    <output>
        <output-file value="C:\PTL\SUMO\SUMOconfig\network_toy_4.net.xml"/>
    </output>

    <processing>
        <offset.disable-normalization value="true"/>
    </processing>

    <junctions>
        <no-turnarounds value="true"/>
    </junctions>

    <netedit>
        <new-network value="false"/>
    </netedit>

</configuration>
-->

<net version="1.16" junctionCornerDetail="5" limitTurnSpeed="5.50" xmlns:xsi="http://www.w3.org/2001/XMLSchema-instance" xsi:noNamespaceSchemaLocation="http://sumo.dlr.de/xsd/net_file.xsd">

    <location netOffset="0.00,0.00" convBoundary="0.00,-3.20,700.00,0.00" origBoundary="10000000000.00,10000000000.00,-10000000000.00,-10000000000.00" projParameter="!"/>

    <edge id=":J1_0" function="internal">
        <lane id=":J1_0_0" index="0" speed="25.00" length="8.00" shape="496.00,-4.80 504.00,-4.80"/>
        <lane id=":J1_0_1" index="1" allow="private bus" speed="25.00" length="8.00" shape="496.00,-1.60 504.00,-1.60"/>
    </edge>
    <edge id=":J2_0" function="internal">
        <lane id=":J2_0_0" index="0" speed="25.00" length="8.00" shape="596.00,-4.80 604.00,-4.80"/>
    </edge>

    <edge id="E0" from="J0" to="J1" priority="-1">
        <lane id="E0_0" index="0" speed="25.00" length="496.00" shape="0.00,-11.20 496.00,-11.20"/>
        <lane id="E0_1" index="1" speed="25.00" length="496.00" shape="0.00,-8.00 496.00,-8.00"/>
        <lane id="E0_2" index="2" speed="25.00" length="496.00" shape="0.00,-4.80 496.00,-4.80"/>
        <lane id="E0_3" index="3" allow="private bus" speed="25.00" length="496.00" shape="0.00,-1.60 496.00,-1.60"/>
    </edge>
    <edge id="E1" from="J1" to="J2" priority="-1">
        <lane id="E1_0" index="0" speed="25.00" length="92.00" shape="504.00,-4.80 596.00,-4.80"/>
        <lane id="E1_1" index="1" allow="private bus" speed="25.00" length="92.00" shape="504.00,-1.60 596.00,-1.60"/>
    </edge>
    <edge id="E2" from="J2" to="J3" priority="-1" shape="600.00,-3.20 700.00,-3.20">
        <lane id="E2_0" index="0" speed="25.00" length="96.00" shape="604.00,-4.80 700.00,-4.80"/>
    </edge>

    <junction id="J0" type="dead_end" x="0.00" y="0.00" incLanes="" intLanes="" shape="0.00,0.00 0.00,-12.80"/>
    <junction id="J1" type="priority" x="500.00" y="0.00" incLanes="E0_0 E0_1 E0_2 E0_3" intLanes=":J1_0_0 :J1_0_1" shape="504.00,0.00 504.00,-6.40 501.98,-6.87 500.79,-8.06 499.21,-11.14 498.02,-12.33 496.00,-12.80 496.00,0.00">
        <request index="0" response="00" foes="00" cont="0"/>
        <request index="1" response="00" foes="00" cont="0"/>
    </junction>
    <junction id="J2" type="priority" x="600.00" y="0.00" incLanes="E1_0 E1_1" intLanes=":J2_0_0" shape="604.00,-3.20 604.00,-6.40 596.00,-6.40 596.00,0.00 599.03,-0.83 600.97,-2.37 602.21,-2.96">
        <request index="0" response="0" foes="0" cont="0"/>
    </junction>
    <junction id="J3" type="dead_end" x="700.00" y="0.00" incLanes="E2_0" intLanes="" shape="700.00,-6.40 700.00,-3.20"/>

    <connection from="E0" to="E1" fromLane="2" toLane="0" via=":J1_0_0" dir="s" state="M"/>
    <connection from="E0" to="E1" fromLane="3" toLane="1" via=":J1_0_1" dir="s" state="M"/>
    <connection from="E1" to="E2" fromLane="0" toLane="0" via=":J2_0_0" dir="s" state="M"/>

    <connection from=":J1_0" to="E1" fromLane="0" toLane="0" dir="s" state="M"/>
    <connection from=":J1_0" to="E1" fromLane="1" toLane="1" dir="s" state="M"/>
    <connection from=":J2_0" to="E2" fromLane="0" toLane="0" dir="s" state="M"/>

</net>
