<?xml version="1.0" encoding="UTF-8"?>

<!-- generated on 2024-10-28 23:21:22 by Eclipse SUMO netedit Version 1.19.0
<configuration xmlns:xsi="http://www.w3.org/2001/XMLSchema-instance" xsi:noNamespaceSchemaLocation="http://sumo.dlr.de/xsd/neteditConfiguration.xsd">

    <input>
        <sumo-net-file value="C:\PTL\SUMO\SUMOconfig\network_extreme.net.xml"/>
    </input>

    <output>
        <output-file value="C:\PTL\SUMO\SUMOconfig\network_extreme.net.xml"/>
    </output>

    <processing>
        <geometry.min-radius.fix.railways value="false"/>
        <geometry.max-grade.fix value="false"/>
        <offset.disable-normalization value="true"/>
        <lefthand value="0"/>
    </processing>

    <junctions>
        <no-turnarounds value="true"/>
        <junctions.corner-detail value="5"/>
        <junctions.limit-turn-speed value="5.50"/>
        <rectangular-lane-cut value="0"/>
    </junctions>

    <pedestrian>
        <walkingareas value="0"/>
    </pedestrian>

</configuration>
-->

<net version="1.16" junctionCornerDetail="5" limitTurnSpeed="5.50" xmlns:xsi="http://www.w3.org/2001/XMLSchema-instance" xsi:noNamespaceSchemaLocation="http://sumo.dlr.de/xsd/net_file.xsd">

    <location netOffset="0.00,0.00" convBoundary="2500.00,-3.40,4000.00,0.00" origBoundary="-10000000000.00,-10000000000.00,10000000000.00,10000000000.00" projParameter="!"/>

    <edge id=":J7_0" function="internal">
        <lane id=":J7_0_0" index="0" speed="19.45" length="8.00" shape="2996.00,-4.80 3004.00,-4.80"/>
        <lane id=":J7_0_1" index="1" allow="private bus" speed="19.45" length="8.00" shape="2996.00,-1.60 3004.00,-1.60"/>
    </edge>
    <edge id=":J8_0" function="internal">
        <lane id=":J8_0_0" index="0" speed="25.00" length="8.45" shape="3496.00,-4.80 3504.00,-5.00"/>
        <lane id=":J8_0_1" index="1" allow="private bus" speed="25.00" length="8.45" shape="3496.00,-1.60 3498.47,-2.13 3500.00,-3.30 3501.53,-4.47 3504.00,-5.00"/>
    </edge>

    <edge id="E0" from="J0" to="J7" priority="-1">
        <lane id="E0_0" index="0" speed="13.89" length="496.00" shape="2500.00,-11.20 2996.00,-11.20"/>
        <lane id="E0_1" index="1" speed="13.89" length="496.00" shape="2500.00,-8.00 2996.00,-8.00"/>
        <lane id="E0_2" index="2" speed="13.89" length="496.00" shape="2500.00,-4.80 2996.00,-4.80"/>
        <lane id="E0_3" index="3" speed="13.89" length="496.00" shape="2500.00,-1.60 2996.00,-1.60"/>
    </edge>
    <edge id="E6" from="J7" to="J8" priority="-1">
        <lane id="E6_0" index="0" speed="25.00" length="492.00" shape="3004.00,-4.80 3496.00,-4.80"/>
        <lane id="E6_1" index="1" allow="private bus" speed="25.00" length="492.00" shape="3004.00,-1.60 3496.00,-1.60"/>
    </edge>
    <edge id="E7" from="J8" to="J9" priority="-1" shape="3500.00,-3.40 4000.00,-3.40">
        <lane id="E7_0" index="0" speed="25.00" length="496.00" shape="3504.00,-5.00 4000.00,-5.00"/>
    </edge>

    <junction id="J0" type="dead_end" x="2500.00" y="0.00" incLanes="" intLanes="" shape="2500.00,0.00 2500.00,-12.80"/>
    <junction id="J7" type="priority" x="3000.00" y="0.00" incLanes="E0_0 E0_1 E0_2 E0_3" intLanes=":J7_0_0 :J7_0_1" shape="3004.00,0.00 3004.00,-6.40 3001.98,-6.87 3000.79,-8.06 2999.21,-11.14 2998.02,-12.33 2996.00,-12.80 2996.00,0.00">
        <request index="0" response="00" foes="00" cont="0"/>
        <request index="1" response="00" foes="00" cont="0"/>
    </junction>
    <junction id="J8" type="priority" x="3500.00" y="0.00" incLanes="E6_0 E6_1" intLanes=":J8_0_0 :J8_0_1" shape="3504.00,-3.40 3504.00,-6.60 3496.00,-6.40 3496.00,0.00 3499.04,-0.88 3500.96,-2.52 3502.20,-3.15">
        <request index="0" response="10" foes="10" cont="0"/>
        <request index="1" response="00" foes="01" cont="0"/>
    </junction>
    <junction id="J9" type="dead_end" x="4000.00" y="0.00" incLanes="E7_0" intLanes="" shape="4000.00,-9.80 4000.00,-3.40" customShape="1"/>

    <connection from="E0" to="E6" fromLane="2" toLane="0" via=":J7_0_0" dir="s" state="M"/>
    <connection from="E0" to="E6" fromLane="3" toLane="1" via=":J7_0_1" dir="s" state="M"/>
    <connection from="E6" to="E7" fromLane="0" toLane="0" via=":J8_0_0" dir="s" state="m"/>
    <connection from="E6" to="E7" fromLane="1" toLane="0" keepClear="0" via=":J8_0_1" dir="s" state="M"/>

    <connection from=":J7_0" to="E6" fromLane="0" toLane="0" dir="s" state="M"/>
    <connection from=":J7_0" to="E6" fromLane="1" toLane="1" dir="s" state="M"/>
    <connection from=":J8_0" to="E7" fromLane="0" toLane="0" dir="s" state="M"/>
    <connection from=":J8_0" to="E7" fromLane="1" toLane="0" dir="s" state="M"/>

</net>
