<?xml version="1.0" encoding="UTF-8"?>

<!-- generated on 2024-10-25 17:44:22 by Eclipse SUMO netedit Version 1.19.0
<configuration xmlns:xsi="http://www.w3.org/2001/XMLSchema-instance" xsi:noNamespaceSchemaLocation="http://sumo.dlr.de/xsd/neteditConfiguration.xsd">

    <input>
        <sumo-net-file value="C:\PTL\SUMO\SUMOconfig\network_crowded_2.net.xml"/>
    </input>

    <output>
        <output-file value="C:\PTL\SUMO\SUMOconfig\network_crowded_2.net.xml"/>
    </output>

    <processing>
        <geometry.min-radius.fix.railways value="false"/>
        <geometry.max-grade.fix value="false"/>
        <offset.disable-normalization value="true"/>
        <lefthand value="0"/>
    </processing>

    <junctions>
        <no-turnarounds value="true"/>
        <junctions.corner-detail value="5"/>
        <junctions.limit-turn-speed value="5.50"/>
        <rectangular-lane-cut value="0"/>
    </junctions>

    <pedestrian>
        <walkingareas value="0"/>
    </pedestrian>

</configuration>
-->

<net version="1.16" junctionCornerDetail="5" limitTurnSpeed="5.50" xmlns:xsi="http://www.w3.org/2001/XMLSchema-instance" xsi:noNamespaceSchemaLocation="http://sumo.dlr.de/xsd/net_file.xsd">

    <location netOffset="0.00,0.00" convBoundary="-1000.00,-50.00,3000.00,0.03" origBoundary="-10000000000.00,-10000000000.00,10000000000.00,10000000000.00" projParameter="!"/>

    <edge id=":J1_0" function="internal">
        <lane id=":J1_0_0" index="0" speed="25.00" length="0.10" shape="-0.00,-11.20 0.00,-11.20"/>
        <lane id=":J1_0_1" index="1" speed="25.00" length="0.10" shape="-0.00,-8.00 0.00,-8.00"/>
        <lane id=":J1_0_2" index="2" speed="25.00" length="0.10" shape="-0.00,-4.80 0.00,-4.80"/>
        <lane id=":J1_0_3" index="3" allow="private bus" speed="25.00" length="0.10" shape="-0.00,-1.60 0.00,-1.60"/>
    </edge>
    <edge id=":J2_0" function="internal">
        <lane id=":J2_0_0" index="0" speed="22.50" length="3.25" shape="421.72,-14.67 422.68,-14.51 423.33,-14.43 423.99,-14.40 424.96,-14.40"/>
    </edge>
    <edge id=":J2_1" function="internal">
        <lane id=":J2_1_0" index="0" speed="25.00" length="3.26" shape="421.70,-11.20 424.96,-11.20"/>
        <lane id=":J2_1_1" index="1" speed="25.00" length="3.26" shape="421.70,-8.00 424.96,-8.00"/>
        <lane id=":J2_1_2" index="2" speed="25.00" length="3.26" shape="421.70,-4.80 424.96,-4.80"/>
        <lane id=":J2_1_3" index="3" allow="private bus" speed="25.00" length="3.26" shape="421.70,-1.60 424.96,-1.60"/>
    </edge>
    <edge id=":J3_0" function="internal">
        <lane id=":J3_0_0" index="0" speed="22.50" length="75.49" shape="510.23,-14.40 531.88,-14.32 555.50,-14.22 575.36,-14.28 585.72,-14.68"/>
    </edge>
    <edge id=":J3_1" function="internal">
        <lane id=":J3_1_0" index="0" speed="25.00" length="75.51" shape="510.23,-11.20 585.74,-11.20"/>
        <lane id=":J3_1_1" index="1" speed="25.00" length="75.51" shape="510.23,-8.00 585.74,-8.00"/>
        <lane id=":J3_1_2" index="2" speed="25.00" length="75.51" shape="510.23,-4.80 585.74,-4.80"/>
        <lane id=":J3_1_3" index="3" allow="private bus" speed="25.00" length="75.51" shape="510.23,-1.60 585.74,-1.60"/>
    </edge>
    <edge id=":J4_0" function="internal">
        <lane id=":J4_0_0" index="0" speed="22.50" length="39.79" shape="1121.72,-14.67 1127.22,-14.28 1136.00,-14.23 1147.59,-14.33 1161.50,-14.40"/>
    </edge>
    <edge id=":J4_1" function="internal">
        <lane id=":J4_1_0" index="0" speed="25.00" length="39.80" shape="1121.70,-11.20 1161.50,-11.20"/>
        <lane id=":J4_1_1" index="1" speed="25.00" length="39.80" shape="1121.70,-8.00 1161.50,-8.00"/>
        <lane id=":J4_1_2" index="2" speed="25.00" length="39.80" shape="1121.70,-4.80 1161.50,-4.80"/>
        <lane id=":J4_1_3" index="3" allow="private bus" speed="25.00" length="39.80" shape="1121.70,-1.60 1161.50,-1.60"/>
    </edge>
    <edge id=":J5_0" function="internal">
        <lane id=":J5_0_0" index="0" speed="22.50" length="37.23" shape="1248.50,-14.40 1261.47,-14.32 1272.24,-14.22 1280.44,-14.28 1285.72,-14.68"/>
    </edge>
    <edge id=":J5_1" function="internal">
        <lane id=":J5_1_0" index="0" speed="25.00" length="37.24" shape="1248.50,-11.20 1285.74,-11.20"/>
        <lane id=":J5_1_1" index="1" speed="25.00" length="37.24" shape="1248.50,-8.00 1285.74,-8.00"/>
        <lane id=":J5_1_2" index="2" speed="25.00" length="37.24" shape="1248.50,-4.80 1285.74,-4.80"/>
        <lane id=":J5_1_3" index="3" allow="private bus" speed="25.00" length="37.24" shape="1248.50,-1.60 1285.74,-1.60"/>
    </edge>
    <edge id=":J6_0" function="internal">
        <lane id=":J6_0_0" index="0" speed="22.50" length="39.79" shape="1821.72,-14.67 1827.22,-14.28 1836.00,-14.23 1847.59,-14.33 1861.50,-14.40"/>
    </edge>
    <edge id=":J6_1" function="internal">
        <lane id=":J6_1_0" index="0" speed="25.00" length="39.80" shape="1821.70,-11.20 1861.50,-11.20"/>
        <lane id=":J6_1_1" index="1" speed="25.00" length="39.80" shape="1821.70,-8.00 1861.50,-8.00"/>
        <lane id=":J6_1_2" index="2" speed="25.00" length="39.80" shape="1821.70,-4.80 1861.50,-4.80"/>
        <lane id=":J6_1_3" index="3" allow="private bus" speed="25.00" length="39.80" shape="1821.70,-1.60 1861.50,-1.60"/>
    </edge>
    <edge id=":J7_0" function="internal">
        <lane id=":J7_0_0" index="0" speed="22.50" length="14.21" shape="1948.50,-14.40 1953.01,-14.29 1956.41,-14.15 1959.39,-14.24 1962.65,-14.81"/>
    </edge>
    <edge id=":J7_1" function="internal">
        <lane id=":J7_1_0" index="0" speed="25.00" length="14.20" shape="1948.50,-11.20 1962.70,-11.20"/>
        <lane id=":J7_1_1" index="1" speed="25.00" length="14.20" shape="1948.50,-8.00 1962.70,-8.00"/>
        <lane id=":J7_1_2" index="2" speed="25.00" length="14.20" shape="1948.50,-4.80 1962.70,-4.80"/>
        <lane id=":J7_1_3" index="3" allow="private bus" speed="25.00" length="14.20" shape="1948.50,-1.60 1962.70,-1.60"/>
    </edge>
    <edge id=":J8_0" function="internal">
        <lane id=":J8_0_0" index="0" speed="25.00" length="8.00" shape="2396.00,-11.20 2404.00,-11.40"/>
        <lane id=":J8_0_1" index="1" speed="25.00" length="8.00" shape="2396.00,-8.00 2404.00,-8.20"/>
        <lane id=":J8_0_2" index="2" speed="25.00" length="8.00" shape="2396.00,-4.80 2404.00,-5.00"/>
    </edge>

    <edge id="E0" from="J0" to="J1" priority="-1" shape="-1000.00,0.03 0.00,0.00">
        <lane id="E0_0" index="0" speed="25.00" length="1000.00" shape="-1000.00,-11.17 -0.00,-11.20"/>
        <lane id="E0_1" index="1" speed="25.00" length="1000.00" shape="-1000.00,-7.97 -0.00,-8.00"/>
        <lane id="E0_2" index="2" speed="25.00" length="1000.00" shape="-1000.00,-4.77 -0.00,-4.80"/>
        <lane id="E0_3" index="3" speed="25.00" length="1000.00" shape="-1000.00,-1.57 -0.00,-1.60"/>
    </edge>
    <edge id="E1" from="J1" to="J2" priority="-1">
        <lane id="E1_0" index="0" speed="25.00" length="421.70" shape="0.00,-11.20 421.70,-11.20"/>
        <lane id="E1_1" index="1" speed="25.00" length="421.70" shape="0.00,-8.00 421.70,-8.00"/>
        <lane id="E1_2" index="2" speed="25.00" length="421.70" shape="0.00,-4.80 421.70,-4.80"/>
        <lane id="E1_3" index="3" allow="private bus" speed="25.00" length="421.70" shape="0.00,-1.60 421.70,-1.60"/>
    </edge>
    <edge id="E2" from="J2" to="J3" priority="-1">
        <lane id="E2_0" index="0" speed="25.00" length="85.27" acceleration="1" shape="424.96,-14.40 510.23,-14.40"/>
        <lane id="E2_1" index="1" speed="25.00" length="85.27" acceleration="1" shape="424.96,-11.20 510.23,-11.20"/>
        <lane id="E2_2" index="2" speed="25.00" length="85.27" acceleration="1" shape="424.96,-8.00 510.23,-8.00"/>
        <lane id="E2_3" index="3" speed="25.00" length="85.27" acceleration="1" shape="424.96,-4.80 510.23,-4.80"/>
        <lane id="E2_4" index="4" allow="private bus" speed="25.00" length="85.27" shape="424.96,-1.60 510.23,-1.60"/>
    </edge>
    <edge id="E3" from="J3" to="J4" priority="-1">
        <lane id="E3_0" index="0" speed="25.00" length="535.96" shape="585.74,-11.20 1121.70,-11.20"/>
        <lane id="E3_1" index="1" speed="25.00" length="535.96" shape="585.74,-8.00 1121.70,-8.00"/>
        <lane id="E3_2" index="2" speed="25.00" length="535.96" shape="585.74,-4.80 1121.70,-4.80"/>
        <lane id="E3_3" index="3" allow="private bus" speed="25.00" length="535.96" shape="585.74,-1.60 1121.70,-1.60"/>
    </edge>
    <edge id="E4" from="J4" to="J5" priority="-1">
        <lane id="E4_0" index="0" speed="25.00" length="87.00" acceleration="1" shape="1161.50,-14.40 1248.50,-14.40"/>
        <lane id="E4_1" index="1" speed="25.00" length="87.00" shape="1161.50,-11.20 1248.50,-11.20"/>
        <lane id="E4_2" index="2" speed="25.00" length="87.00" shape="1161.50,-8.00 1248.50,-8.00"/>
        <lane id="E4_3" index="3" speed="25.00" length="87.00" shape="1161.50,-4.80 1248.50,-4.80"/>
        <lane id="E4_4" index="4" allow="private bus" speed="25.00" length="87.00" shape="1161.50,-1.60 1248.50,-1.60"/>
    </edge>
    <edge id="E5" from="J5" to="J6" priority="-1">
        <lane id="E5_0" index="0" speed="25.00" length="535.96" shape="1285.74,-11.20 1821.70,-11.20"/>
        <lane id="E5_1" index="1" speed="25.00" length="535.96" shape="1285.74,-8.00 1821.70,-8.00"/>
        <lane id="E5_2" index="2" speed="25.00" length="535.96" shape="1285.74,-4.80 1821.70,-4.80"/>
        <lane id="E5_3" index="3" allow="private bus" speed="25.00" length="535.96" shape="1285.74,-1.60 1821.70,-1.60"/>
    </edge>
    <edge id="E6" from="J6" to="J7" priority="-1" length="80.00">
        <lane id="E6_0" index="0" speed="25.00" length="80.00" acceleration="1" shape="1861.50,-14.40 1948.50,-14.40"/>
        <lane id="E6_1" index="1" speed="25.00" length="80.00" shape="1861.50,-11.20 1948.50,-11.20"/>
        <lane id="E6_2" index="2" speed="25.00" length="80.00" shape="1861.50,-8.00 1948.50,-8.00"/>
        <lane id="E6_3" index="3" speed="25.00" length="80.00" shape="1861.50,-4.80 1948.50,-4.80"/>
        <lane id="E6_4" index="4" allow="private bus" speed="25.00" length="80.00" shape="1861.50,-1.60 1948.50,-1.60"/>
    </edge>
    <edge id="E7" from="J7" to="J8" priority="-1">
        <lane id="E7_0" index="0" speed="25.00" length="433.30" shape="1962.70,-11.20 2396.00,-11.20"/>
        <lane id="E7_1" index="1" speed="25.00" length="433.30" shape="1962.70,-8.00 2396.00,-8.00"/>
        <lane id="E7_2" index="2" speed="25.00" length="433.30" shape="1962.70,-4.80 2396.00,-4.80"/>
        <lane id="E7_3" index="3" allow="private bus" speed="25.00" length="433.30" shape="1962.70,-1.60 2396.00,-1.60"/>
    </edge>
    <edge id="E8" from="J8" to="J9" priority="-1" shape="2400.00,-3.40 3000.00,-3.40">
        <lane id="E8_0" index="0" speed="25.00" length="596.00" shape="2404.00,-11.40 3000.00,-11.40"/>
        <lane id="E8_1" index="1" speed="25.00" length="596.00" shape="2404.00,-8.20 3000.00,-8.20"/>
        <lane id="E8_2" index="2" speed="25.00" length="596.00" shape="2404.00,-5.00 3000.00,-5.00"/>
    </edge>
    <edge id="Ei1" from="i1" to="J2" priority="-1">
        <lane id="Ei1_0" index="0" speed="20.00" length="224.52" shape="200.26,-51.58 421.72,-14.67"/>
    </edge>
    <edge id="Ei2" from="i2" to="J4" priority="-1">
        <lane id="Ei2_0" index="0" speed="20.00" length="224.51" shape="900.26,-51.58 1121.72,-14.67"/>
    </edge>
    <edge id="Ei3" from="i3" to="J6" priority="-1">
        <lane id="Ei3_0" index="0" speed="20.00" length="224.51" shape="1600.26,-51.58 1821.72,-14.67"/>
    </edge>
    <edge id="Eo1" from="J3" to="o1" priority="-1">
        <lane id="Eo1_0" index="0" speed="20.00" length="217.17" shape="585.72,-14.68 799.73,-51.58"/>
    </edge>
    <edge id="Eo2" from="J5" to="o2" priority="-1">
        <lane id="Eo2_0" index="0" speed="20.00" length="217.17" shape="1285.72,-14.68 1499.73,-51.58"/>
    </edge>
    <edge id="Eo3" from="J7" to="o3" priority="-1">
        <lane id="Eo3_0" index="0" speed="20.00" length="151.49" shape="1962.65,-14.81 2109.61,-51.55"/>
    </edge>

    <junction id="J0" type="dead_end" x="-1000.00" y="0.00" incLanes="" intLanes="" shape="-1000.00,0.03 -1000.00,-12.77"/>
    <junction id="J1" type="priority" x="0.00" y="0.00" incLanes="E0_0 E0_1 E0_2 E0_3" intLanes=":J1_0_0 :J1_0_1 :J1_0_2 :J1_0_3" shape="0.00,0.00 0.00,-12.80 -0.00,0.00">
        <request index="0" response="0000" foes="0000" cont="0"/>
        <request index="1" response="0000" foes="0000" cont="0"/>
        <request index="2" response="0000" foes="0000" cont="0"/>
        <request index="3" response="0000" foes="0000" cont="0"/>
    </junction>
    <junction id="J2" type="unregulated" x="500.00" y="0.00" incLanes="Ei1_0 E1_0 E1_1 E1_2 E1_3" intLanes=":J2_0_0 :J2_1_0 :J2_1_1 :J2_1_2 :J2_1_3" shape="424.96,0.00 424.96,-16.00 423.86,-16.01 423.47,-16.03 423.08,-16.07 422.61,-16.14 421.99,-16.25 421.46,-13.09 421.70,-12.80 421.70,0.00" customShape="1"/>
    <junction id="J3" type="priority" x="510.00" y="0.00" incLanes="E2_0 E2_1 E2_2 E2_3 E2_4" intLanes=":J3_0_0 :J3_1_0 :J3_1_1 :J3_1_2 :J3_1_3" shape="585.74,0.00 585.74,-12.80 585.99,-13.10 585.44,-16.25 573.05,-14.76 560.55,-14.30 547.97,-14.53 535.37,-15.12 522.77,-15.72 510.23,-16.00 510.23,0.00">
        <request index="0" response="00000" foes="00000" cont="0"/>
        <request index="1" response="00000" foes="00000" cont="0"/>
        <request index="2" response="00000" foes="00000" cont="0"/>
        <request index="3" response="00000" foes="00000" cont="0"/>
        <request index="4" response="00000" foes="00000" cont="0"/>
    </junction>
    <junction id="J4" type="unregulated" x="1200.00" y="0.00" incLanes="Ei2_0 E3_0 E3_1 E3_2 E3_3" intLanes=":J4_0_0 :J4_1_0 :J4_1_1 :J4_1_2 :J4_1_3" shape="1161.50,0.00 1161.50,-16.00 1153.07,-15.79 1146.81,-15.34 1141.64,-14.91 1136.50,-14.74 1130.31,-15.10 1121.99,-16.25 1121.46,-13.09 1121.70,-12.80 1121.70,0.00"/>
    <junction id="J5" type="priority" x="1210.00" y="0.00" incLanes="E4_0 E4_1 E4_2 E4_3 E4_4" intLanes=":J5_0_0 :J5_1_0 :J5_1_1 :J5_1_2 :J5_1_3" shape="1285.74,0.00 1285.74,-12.80 1285.99,-13.10 1285.44,-16.25 1277.67,-15.15 1271.88,-14.79 1267.07,-14.95 1262.24,-15.37 1256.39,-15.80 1248.50,-16.00 1248.50,0.00">
        <request index="0" response="00000" foes="00000" cont="0"/>
        <request index="1" response="00000" foes="00000" cont="0"/>
        <request index="2" response="00000" foes="00000" cont="0"/>
        <request index="3" response="00000" foes="00000" cont="0"/>
        <request index="4" response="00000" foes="00000" cont="0"/>
    </junction>
    <junction id="J6" type="unregulated" x="1900.00" y="0.00" incLanes="Ei3_0 E5_0 E5_1 E5_2 E5_3" intLanes=":J6_0_0 :J6_1_0 :J6_1_1 :J6_1_2 :J6_1_3" shape="1861.50,0.00 1861.50,-16.00 1853.07,-15.79 1846.81,-15.34 1841.64,-14.91 1836.50,-14.74 1830.31,-15.10 1821.99,-16.25 1821.46,-13.09 1821.70,-12.80 1821.70,0.00"/>
    <junction id="J7" type="priority" x="1910.00" y="0.00" incLanes="E6_0 E6_1 E6_2 E6_3 E6_4" intLanes=":J7_0_0 :J7_1_0 :J7_1_1 :J7_1_2 :J7_1_3" shape="1962.70,0.00 1962.70,-12.80 1963.04,-13.26 1962.26,-16.36 1959.40,-15.76 1957.26,-15.53 1955.46,-15.56 1953.64,-15.72 1951.45,-15.91 1948.50,-16.00 1948.50,0.00">
        <request index="0" response="00000" foes="00000" cont="0"/>
        <request index="1" response="00000" foes="00000" cont="0"/>
        <request index="2" response="00000" foes="00000" cont="0"/>
        <request index="3" response="00000" foes="00000" cont="0"/>
        <request index="4" response="00000" foes="00000" cont="0"/>
    </junction>
    <junction id="J8" type="priority" x="2400.00" y="0.00" incLanes="E7_0 E7_1 E7_2 E7_3" intLanes=":J8_0_0 :J8_0_1 :J8_0_2" shape="2404.00,-3.40 2404.00,-13.00 2396.00,-12.80 2396.00,0.00 2399.04,-0.88 2400.96,-2.52 2402.20,-3.15">
        <request index="0" response="000" foes="000" cont="0"/>
        <request index="1" response="000" foes="000" cont="0"/>
        <request index="2" response="000" foes="000" cont="0"/>
    </junction>
    <junction id="J9" type="dead_end" x="3000.00" y="0.00" incLanes="E8_0 E8_1 E8_2" intLanes="" shape="4000.00,-9.80 4000.00,-3.40" customShape="1"/>
    <junction id="i1" type="dead_end" x="200.00" y="-50.00" incLanes="" intLanes="" shape="200.00,-50.00 200.53,-53.16"/>
    <junction id="i2" type="dead_end" x="900.00" y="-50.00" incLanes="" intLanes="" shape="900.00,-50.00 900.53,-53.16"/>
    <junction id="i3" type="dead_end" x="1600.00" y="-50.00" incLanes="" intLanes="" shape="1600.00,-50.00 1600.53,-53.16"/>
    <junction id="o1" type="dead_end" x="800.00" y="-50.00" incLanes="Eo1_0" intLanes="" shape="799.46,-53.15 800.00,-50.00"/>
    <junction id="o2" type="dead_end" x="1500.00" y="-50.00" incLanes="Eo2_0" intLanes="" shape="1499.46,-53.15 1500.00,-50.00"/>
    <junction id="o3" type="dead_end" x="2110.00" y="-50.00" incLanes="Eo3_0" intLanes="" shape="2109.22,-53.10 2110.00,-50.00"/>

    <connection from="E0" to="E1" fromLane="0" toLane="0" via=":J1_0_0" dir="s" state="M"/>
    <connection from="E0" to="E1" fromLane="1" toLane="1" via=":J1_0_1" dir="s" state="M"/>
    <connection from="E0" to="E1" fromLane="2" toLane="2" via=":J1_0_2" dir="s" state="M"/>
    <connection from="E0" to="E1" fromLane="3" toLane="3" via=":J1_0_3" dir="s" state="M"/>
    <connection from="E1" to="E2" fromLane="0" toLane="1" via=":J2_1_0" dir="s" state="M"/>
    <connection from="E1" to="E2" fromLane="1" toLane="2" via=":J2_1_1" dir="s" state="M"/>
    <connection from="E1" to="E2" fromLane="2" toLane="3" via=":J2_1_2" dir="s" state="M"/>
    <connection from="E1" to="E2" fromLane="3" toLane="4" via=":J2_1_3" dir="s" state="M"/>
    <connection from="E2" to="Eo1" fromLane="0" toLane="0" via=":J3_0_0" dir="R" state="M"/>
    <connection from="E2" to="E3" fromLane="1" toLane="0" via=":J3_1_0" dir="s" state="M"/>
    <connection from="E2" to="E3" fromLane="2" toLane="1" via=":J3_1_1" dir="s" state="M"/>
    <connection from="E2" to="E3" fromLane="3" toLane="2" via=":J3_1_2" dir="s" state="M"/>
    <connection from="E2" to="E3" fromLane="4" toLane="3" via=":J3_1_3" dir="s" state="M"/>
    <connection from="E3" to="E4" fromLane="0" toLane="1" via=":J4_1_0" dir="s" state="M"/>
    <connection from="E3" to="E4" fromLane="1" toLane="2" via=":J4_1_1" dir="s" state="M"/>
    <connection from="E3" to="E4" fromLane="2" toLane="3" via=":J4_1_2" dir="s" state="M"/>
    <connection from="E3" to="E4" fromLane="3" toLane="4" via=":J4_1_3" dir="s" state="M"/>
    <connection from="E4" to="Eo2" fromLane="0" toLane="0" via=":J5_0_0" dir="R" state="M"/>
    <connection from="E4" to="E5" fromLane="1" toLane="0" via=":J5_1_0" dir="s" state="M"/>
    <connection from="E4" to="E5" fromLane="2" toLane="1" via=":J5_1_1" dir="s" state="M"/>
    <connection from="E4" to="E5" fromLane="3" toLane="2" via=":J5_1_2" dir="s" state="M"/>
    <connection from="E4" to="E5" fromLane="4" toLane="3" via=":J5_1_3" dir="s" state="M"/>
    <connection from="E5" to="E6" fromLane="0" toLane="1" via=":J6_1_0" dir="s" state="M"/>
    <connection from="E5" to="E6" fromLane="1" toLane="2" via=":J6_1_1" dir="s" state="M"/>
    <connection from="E5" to="E6" fromLane="2" toLane="3" via=":J6_1_2" dir="s" state="M"/>
    <connection from="E5" to="E6" fromLane="3" toLane="4" via=":J6_1_3" dir="s" state="M"/>
    <connection from="E6" to="Eo3" fromLane="0" toLane="0" via=":J7_0_0" dir="R" state="M"/>
    <connection from="E6" to="E7" fromLane="1" toLane="0" via=":J7_1_0" dir="s" state="M"/>
    <connection from="E6" to="E7" fromLane="2" toLane="1" via=":J7_1_1" dir="s" state="M"/>
    <connection from="E6" to="E7" fromLane="3" toLane="2" via=":J7_1_2" dir="s" state="M"/>
    <connection from="E6" to="E7" fromLane="4" toLane="3" via=":J7_1_3" dir="s" state="M"/>
    <connection from="E7" to="E8" fromLane="0" toLane="0" via=":J8_0_0" dir="s" state="M"/>
    <connection from="E7" to="E8" fromLane="1" toLane="1" via=":J8_0_1" dir="s" state="M"/>
    <connection from="E7" to="E8" fromLane="2" toLane="2" via=":J8_0_2" dir="s" state="M"/>
    <connection from="Ei1" to="E2" fromLane="0" toLane="0" via=":J2_0_0" dir="s" state="M"/>
    <connection from="Ei2" to="E4" fromLane="0" toLane="0" via=":J4_0_0" dir="s" state="M"/>
    <connection from="Ei3" to="E6" fromLane="0" toLane="0" via=":J6_0_0" dir="s" state="M"/>

    <connection from=":J1_0" to="E1" fromLane="0" toLane="0" dir="s" state="M"/>
    <connection from=":J1_0" to="E1" fromLane="1" toLane="1" dir="s" state="M"/>
    <connection from=":J1_0" to="E1" fromLane="2" toLane="2" dir="s" state="M"/>
    <connection from=":J1_0" to="E1" fromLane="3" toLane="3" dir="s" state="M"/>
    <connection from=":J2_0" to="E2" fromLane="0" toLane="0" dir="s" state="M"/>
    <connection from=":J2_1" to="E2" fromLane="0" toLane="1" dir="s" state="M"/>
    <connection from=":J2_1" to="E2" fromLane="1" toLane="2" dir="s" state="M"/>
    <connection from=":J2_1" to="E2" fromLane="2" toLane="3" dir="s" state="M"/>
    <connection from=":J2_1" to="E2" fromLane="3" toLane="4" dir="s" state="M"/>
    <connection from=":J3_0" to="Eo1" fromLane="0" toLane="0" dir="R" state="M"/>
    <connection from=":J3_1" to="E3" fromLane="0" toLane="0" dir="s" state="M"/>
    <connection from=":J3_1" to="E3" fromLane="1" toLane="1" dir="s" state="M"/>
    <connection from=":J3_1" to="E3" fromLane="2" toLane="2" dir="s" state="M"/>
    <connection from=":J3_1" to="E3" fromLane="3" toLane="3" dir="s" state="M"/>
    <connection from=":J4_0" to="E4" fromLane="0" toLane="0" dir="s" state="M"/>
    <connection from=":J4_1" to="E4" fromLane="0" toLane="1" dir="s" state="M"/>
    <connection from=":J4_1" to="E4" fromLane="1" toLane="2" dir="s" state="M"/>
    <connection from=":J4_1" to="E4" fromLane="2" toLane="3" dir="s" state="M"/>
    <connection from=":J4_1" to="E4" fromLane="3" toLane="4" dir="s" state="M"/>
    <connection from=":J5_0" to="Eo2" fromLane="0" toLane="0" dir="R" state="M"/>
    <connection from=":J5_1" to="E5" fromLane="0" toLane="0" dir="s" state="M"/>
    <connection from=":J5_1" to="E5" fromLane="1" toLane="1" dir="s" state="M"/>
    <connection from=":J5_1" to="E5" fromLane="2" toLane="2" dir="s" state="M"/>
    <connection from=":J5_1" to="E5" fromLane="3" toLane="3" dir="s" state="M"/>
    <connection from=":J6_0" to="E6" fromLane="0" toLane="0" dir="s" state="M"/>
    <connection from=":J6_1" to="E6" fromLane="0" toLane="1" dir="s" state="M"/>
    <connection from=":J6_1" to="E6" fromLane="1" toLane="2" dir="s" state="M"/>
    <connection from=":J6_1" to="E6" fromLane="2" toLane="3" dir="s" state="M"/>
    <connection from=":J6_1" to="E6" fromLane="3" toLane="4" dir="s" state="M"/>
    <connection from=":J7_0" to="Eo3" fromLane="0" toLane="0" dir="R" state="M"/>
    <connection from=":J7_1" to="E7" fromLane="0" toLane="0" dir="s" state="M"/>
    <connection from=":J7_1" to="E7" fromLane="1" toLane="1" dir="s" state="M"/>
    <connection from=":J7_1" to="E7" fromLane="2" toLane="2" dir="s" state="M"/>
    <connection from=":J7_1" to="E7" fromLane="3" toLane="3" dir="s" state="M"/>
    <connection from=":J8_0" to="E8" fromLane="0" toLane="0" dir="s" state="M"/>
    <connection from=":J8_0" to="E8" fromLane="1" toLane="1" dir="s" state="M"/>
    <connection from=":J8_0" to="E8" fromLane="2" toLane="2" dir="s" state="M"/>

</net>
