<?xml version="1.0" encoding="UTF-8"?>

<!-- generated on 2024-10-25 17:09:54 by Eclipse SUMO netedit Version 1.19.0
<configuration xmlns:xsi="http://www.w3.org/2001/XMLSchema-instance" xsi:noNamespaceSchemaLocation="http://sumo.dlr.de/xsd/neteditConfiguration.xsd">

    <input>
        <sumo-net-file value="C:\PTL\SUMO\SUMOconfig\network_crowded.net.xml"/>
    </input>

    <output>
        <output-file value="C:\PTL\SUMO\SUMOconfig\network_crowded.net.xml"/>
    </output>

    <processing>
        <geometry.min-radius.fix.railways value="false"/>
        <geometry.max-grade.fix value="false"/>
        <offset.disable-normalization value="true"/>
        <lefthand value="0"/>
    </processing>

    <junctions>
        <no-turnarounds value="true"/>
        <junctions.corner-detail value="5"/>
        <junctions.limit-turn-speed value="5.50"/>
        <rectangular-lane-cut value="0"/>
    </junctions>

    <pedestrian>
        <walkingareas value="0"/>
    </pedestrian>

</configuration>
-->

<net version="1.16" junctionCornerDetail="5" limitTurnSpeed="5.50" xmlns:xsi="http://www.w3.org/2001/XMLSchema-instance" xsi:noNamespaceSchemaLocation="http://sumo.dlr.de/xsd/net_file.xsd">

    <location netOffset="0.00,0.00" convBoundary="-500.00,-50.00,4000.00,0.03" origBoundary="-10000000000.00,-10000000000.00,10000000000.00,10000000000.00" projParameter="!"/>

    <edge id=":J1_0" function="internal">
        <lane id=":J1_0_0" index="0" speed="25.00" length="0.10" shape="-0.00,-11.20 0.00,-11.20"/>
        <lane id=":J1_0_1" index="1" speed="25.00" length="0.10" shape="-0.00,-8.00 0.00,-8.00"/>
        <lane id=":J1_0_2" index="2" speed="25.00" length="0.10" shape="-0.00,-4.80 0.00,-4.80"/>
        <lane id=":J1_0_3" index="3" allow="private bus" speed="25.00" length="0.10" shape="-0.00,-1.60 0.00,-1.60"/>
    </edge>
    <edge id=":J2_0" function="internal">
        <lane id=":J2_0_0" index="0" speed="22.50" length="3.26" shape="421.72,-14.67 422.68,-14.51 423.34,-14.43 424.00,-14.40 424.96,-14.40"/>
    </edge>
    <edge id=":J2_1" function="internal">
        <lane id=":J2_1_0" index="0" speed="25.00" length="3.26" shape="421.70,-11.20 424.96,-11.20"/>
        <lane id=":J2_1_1" index="1" speed="25.00" length="3.26" shape="421.70,-8.00 424.96,-8.00"/>
        <lane id=":J2_1_2" index="2" speed="25.00" length="3.26" shape="421.70,-4.80 424.96,-4.80"/>
        <lane id=":J2_1_3" index="3" allow="private bus" speed="25.00" length="3.26" shape="421.70,-1.60 424.96,-1.60"/>
    </edge>
    <edge id=":J3_0" function="internal">
        <lane id=":J3_0_0" index="0" speed="22.50" length="3.38" shape="749.31,-14.40 750.31,-14.41 751.00,-14.45 751.67,-14.57 752.65,-14.81"/>
    </edge>
    <edge id=":J3_1" function="internal">
        <lane id=":J3_1_0" index="0" speed="25.00" length="3.39" shape="749.31,-11.20 752.70,-11.20"/>
        <lane id=":J3_1_1" index="1" speed="25.00" length="3.39" shape="749.31,-8.00 752.70,-8.00"/>
        <lane id=":J3_1_2" index="2" speed="25.00" length="3.39" shape="749.31,-4.80 752.70,-4.80"/>
        <lane id=":J3_1_3" index="3" allow="private bus" speed="25.00" length="3.39" shape="749.31,-1.60 752.70,-1.60"/>
    </edge>
    <edge id=":J4_0" function="internal">
        <lane id=":J4_0_0" index="0" speed="22.50" length="3.26" shape="1421.72,-14.67 1422.68,-14.51 1423.34,-14.43 1424.00,-14.40 1424.96,-14.40"/>
    </edge>
    <edge id=":J4_1" function="internal">
        <lane id=":J4_1_0" index="0" speed="25.00" length="3.26" shape="1421.70,-11.20 1424.96,-11.20"/>
        <lane id=":J4_1_1" index="1" speed="25.00" length="3.26" shape="1421.70,-8.00 1424.96,-8.00"/>
        <lane id=":J4_1_2" index="2" speed="25.00" length="3.26" shape="1421.70,-4.80 1424.96,-4.80"/>
        <lane id=":J4_1_3" index="3" allow="private bus" speed="25.00" length="3.26" shape="1421.70,-1.60 1424.96,-1.60"/>
    </edge>
    <edge id=":J5_0" function="internal">
        <lane id=":J5_0_0" index="0" speed="22.50" length="3.38" shape="1749.31,-14.40 1750.31,-14.41 1751.00,-14.45 1751.67,-14.57 1752.65,-14.81"/>
    </edge>
    <edge id=":J5_1" function="internal">
        <lane id=":J5_1_0" index="0" speed="25.00" length="3.39" shape="1749.31,-11.20 1752.70,-11.20"/>
        <lane id=":J5_1_1" index="1" speed="25.00" length="3.39" shape="1749.31,-8.00 1752.70,-8.00"/>
        <lane id=":J5_1_2" index="2" speed="25.00" length="3.39" shape="1749.31,-4.80 1752.70,-4.80"/>
        <lane id=":J5_1_3" index="3" allow="private bus" speed="25.00" length="3.39" shape="1749.31,-1.60 1752.70,-1.60"/>
    </edge>
    <edge id=":J6_0" function="internal">
        <lane id=":J6_0_0" index="0" speed="22.50" length="3.26" shape="2421.72,-14.67 2422.68,-14.51 2423.34,-14.43 2424.00,-14.40 2424.96,-14.40"/>
    </edge>
    <edge id=":J6_1" function="internal">
        <lane id=":J6_1_0" index="0" speed="25.00" length="3.26" shape="2421.70,-11.20 2424.96,-11.20"/>
        <lane id=":J6_1_1" index="1" speed="25.00" length="3.26" shape="2421.70,-8.00 2424.96,-8.00"/>
        <lane id=":J6_1_2" index="2" speed="25.00" length="3.26" shape="2421.70,-4.80 2424.96,-4.80"/>
        <lane id=":J6_1_3" index="3" allow="private bus" speed="25.00" length="3.26" shape="2421.70,-1.60 2424.96,-1.60"/>
    </edge>
    <edge id=":J7_0" function="internal">
        <lane id=":J7_0_0" index="0" speed="22.50" length="3.38" shape="2749.31,-14.40 2750.31,-14.41 2751.00,-14.45 2751.67,-14.57 2752.65,-14.81"/>
    </edge>
    <edge id=":J7_1" function="internal">
        <lane id=":J7_1_0" index="0" speed="25.00" length="3.39" shape="2749.31,-11.20 2752.70,-11.20"/>
        <lane id=":J7_1_1" index="1" speed="25.00" length="3.39" shape="2749.31,-8.00 2752.70,-8.00"/>
        <lane id=":J7_1_2" index="2" speed="25.00" length="3.39" shape="2749.31,-4.80 2752.70,-4.80"/>
        <lane id=":J7_1_3" index="3" allow="private bus" speed="25.00" length="3.39" shape="2749.31,-1.60 2752.70,-1.60"/>
    </edge>
    <edge id=":J8_0" function="internal">
        <lane id=":J8_0_0" index="0" speed="25.00" length="8.00" shape="3496.00,-11.20 3504.00,-11.40"/>
        <lane id=":J8_0_1" index="1" speed="25.00" length="8.00" shape="3496.00,-8.00 3504.00,-8.20"/>
        <lane id=":J8_0_2" index="2" speed="25.00" length="8.00" shape="3496.00,-4.80 3504.00,-5.00"/>
    </edge>

    <edge id="E0" from="J0" to="J1" priority="-1" shape="-500.00,0.03 0.00,0.00">
        <lane id="E0_0" index="0" speed="25.00" length="500.00" shape="-500.00,-11.17 -0.00,-11.20"/>
        <lane id="E0_1" index="1" speed="25.00" length="500.00" shape="-500.00,-7.97 -0.00,-8.00"/>
        <lane id="E0_2" index="2" speed="25.00" length="500.00" shape="-500.00,-4.77 -0.00,-4.80"/>
        <lane id="E0_3" index="3" speed="25.00" length="500.00" shape="-500.00,-1.57 -0.00,-1.60"/>
    </edge>
    <edge id="E1" from="J1" to="J2" priority="-1">
        <lane id="E1_0" index="0" speed="25.00" length="421.70" shape="0.00,-11.20 421.70,-11.20"/>
        <lane id="E1_1" index="1" speed="25.00" length="421.70" shape="0.00,-8.00 421.70,-8.00"/>
        <lane id="E1_2" index="2" speed="25.00" length="421.70" shape="0.00,-4.80 421.70,-4.80"/>
        <lane id="E1_3" index="3" allow="private bus" speed="25.00" length="421.70" shape="0.00,-1.60 421.70,-1.60"/>
    </edge>
    <edge id="E2" from="J2" to="J3" priority="-1">
        <lane id="E2_0" index="0" speed="25.00" length="324.34" acceleration="1" shape="424.96,-14.40 749.31,-14.40"/>
        <lane id="E2_1" index="1" speed="25.00" length="324.34" shape="424.96,-11.20 749.31,-11.20"/>
        <lane id="E2_2" index="2" speed="25.00" length="324.34" shape="424.96,-8.00 749.31,-8.00"/>
        <lane id="E2_3" index="3" speed="25.00" length="324.34" shape="424.96,-4.80 749.31,-4.80"/>
        <lane id="E2_4" index="4" allow="private bus" speed="25.00" length="324.34" shape="424.96,-1.60 749.31,-1.60"/>
    </edge>
    <edge id="E3" from="J3" to="J4" priority="-1">
        <lane id="E3_0" index="0" speed="25.00" length="669.00" shape="752.70,-11.20 1421.70,-11.20"/>
        <lane id="E3_1" index="1" speed="25.00" length="669.00" shape="752.70,-8.00 1421.70,-8.00"/>
        <lane id="E3_2" index="2" speed="25.00" length="669.00" shape="752.70,-4.80 1421.70,-4.80"/>
        <lane id="E3_3" index="3" allow="private bus" speed="25.00" length="669.00" shape="752.70,-1.60 1421.70,-1.60"/>
    </edge>
    <edge id="E4" from="J4" to="J5" priority="-1">
        <lane id="E4_0" index="0" speed="25.00" length="324.34" acceleration="1" shape="1424.96,-14.40 1749.31,-14.40"/>
        <lane id="E4_1" index="1" speed="25.00" length="324.34" shape="1424.96,-11.20 1749.31,-11.20"/>
        <lane id="E4_2" index="2" speed="25.00" length="324.34" shape="1424.96,-8.00 1749.31,-8.00"/>
        <lane id="E4_3" index="3" speed="25.00" length="324.34" shape="1424.96,-4.80 1749.31,-4.80"/>
        <lane id="E4_4" index="4" allow="private bus" speed="25.00" length="324.34" shape="1424.96,-1.60 1749.31,-1.60"/>
    </edge>
    <edge id="E5" from="J5" to="J6" priority="-1">
        <lane id="E5_0" index="0" speed="25.00" length="669.00" shape="1752.70,-11.20 2421.70,-11.20"/>
        <lane id="E5_1" index="1" speed="25.00" length="669.00" shape="1752.70,-8.00 2421.70,-8.00"/>
        <lane id="E5_2" index="2" speed="25.00" length="669.00" shape="1752.70,-4.80 2421.70,-4.80"/>
        <lane id="E5_3" index="3" allow="private bus" speed="25.00" length="669.00" shape="1752.70,-1.60 2421.70,-1.60"/>
    </edge>
    <edge id="E6" from="J6" to="J7" priority="-1">
        <lane id="E6_0" index="0" speed="25.00" length="324.34" acceleration="1" shape="2424.96,-14.40 2749.31,-14.40"/>
        <lane id="E6_1" index="1" speed="25.00" length="324.34" shape="2424.96,-11.20 2749.31,-11.20"/>
        <lane id="E6_2" index="2" speed="25.00" length="324.34" shape="2424.96,-8.00 2749.31,-8.00"/>
        <lane id="E6_3" index="3" speed="25.00" length="324.34" shape="2424.96,-4.80 2749.31,-4.80"/>
        <lane id="E6_4" index="4" allow="private bus" speed="25.00" length="324.34" shape="2424.96,-1.60 2749.31,-1.60"/>
    </edge>
    <edge id="E7" from="J7" to="J8" priority="-1">
        <lane id="E7_0" index="0" speed="25.00" length="743.30" shape="2752.70,-11.20 3496.00,-11.20"/>
        <lane id="E7_1" index="1" speed="25.00" length="743.30" shape="2752.70,-8.00 3496.00,-8.00"/>
        <lane id="E7_2" index="2" speed="25.00" length="743.30" shape="2752.70,-4.80 3496.00,-4.80"/>
        <lane id="E7_3" index="3" allow="private bus" speed="25.00" length="743.30" shape="2752.70,-1.60 3496.00,-1.60"/>
    </edge>
    <edge id="E8" from="J8" to="J9" priority="-1" shape="3500.00,-3.40 4000.00,-3.40">
        <lane id="E8_0" index="0" speed="25.00" length="496.00" shape="3504.00,-11.40 4000.00,-11.40"/>
        <lane id="E8_1" index="1" speed="25.00" length="496.00" shape="3504.00,-8.20 4000.00,-8.20"/>
        <lane id="E8_2" index="2" speed="25.00" length="496.00" shape="3504.00,-5.00 4000.00,-5.00"/>
    </edge>
    <edge id="Ei1" from="i1" to="J2" priority="-1">
        <lane id="Ei1_0" index="0" speed="20.00" length="224.51" shape="200.26,-51.58 421.72,-14.67"/>
    </edge>
    <edge id="Ei2" from="i2" to="J4" priority="-1">
        <lane id="Ei2_0" index="0" speed="20.00" length="224.51" shape="1200.26,-51.58 1421.72,-14.67"/>
    </edge>
    <edge id="Ei3" from="i3" to="J6" priority="-1">
        <lane id="Ei3_0" index="0" speed="20.00" length="224.51" shape="2200.26,-51.58 2421.72,-14.67"/>
    </edge>
    <edge id="Eo1" from="J3" to="o1" priority="-1">
        <lane id="Eo1_0" index="0" speed="20.00" length="151.49" shape="752.65,-14.81 899.61,-51.55"/>
    </edge>
    <edge id="Eo2" from="J5" to="o2" priority="-1">
        <lane id="Eo2_0" index="0" speed="20.00" length="151.49" shape="1752.65,-14.81 1899.61,-51.55"/>
    </edge>
    <edge id="Eo3" from="J7" to="o3" priority="-1">
        <lane id="Eo3_0" index="0" speed="20.00" length="151.49" shape="2752.65,-14.81 2899.61,-51.55"/>
    </edge>

    <junction id="J0" type="dead_end" x="-500.00" y="0.00" incLanes="" intLanes="" shape="-500.00,0.03 -500.00,-12.77"/>
    <junction id="J1" type="priority" x="0.00" y="0.00" incLanes="E0_0 E0_1 E0_2 E0_3" intLanes=":J1_0_0 :J1_0_1 :J1_0_2 :J1_0_3" shape="0.00,0.00 0.00,-12.80 -0.00,0.00">
        <request index="0" response="0000" foes="0000" cont="0"/>
        <request index="1" response="0000" foes="0000" cont="0"/>
        <request index="2" response="0000" foes="0000" cont="0"/>
        <request index="3" response="0000" foes="0000" cont="0"/>
    </junction>
    <junction id="J2" type="unregulated" x="500.00" y="0.00" incLanes="Ei1_0 E1_0 E1_1 E1_2 E1_3" intLanes=":J2_0_0 :J2_1_0 :J2_1_1 :J2_1_2 :J2_1_3" shape="424.96,0.00 424.96,-16.00 423.86,-16.01 423.47,-16.03 423.08,-16.07 422.61,-16.14 421.99,-16.25 421.46,-13.09 421.70,-12.80 421.70,0.00"/>
    <junction id="J3" type="priority" x="700.00" y="0.00" incLanes="E2_0 E2_1 E2_2 E2_3 E2_4" intLanes=":J3_0_0 :J3_1_0 :J3_1_1 :J3_1_2 :J3_1_3" shape="752.70,0.00 752.70,-12.80 753.04,-13.26 752.26,-16.36 751.18,-16.11 750.80,-16.05 750.41,-16.01 749.94,-16.00 749.31,-16.00 749.31,0.00">
        <request index="0" response="00000" foes="00000" cont="0"/>
        <request index="1" response="00000" foes="00000" cont="0"/>
        <request index="2" response="00000" foes="00000" cont="0"/>
        <request index="3" response="00000" foes="00000" cont="0"/>
        <request index="4" response="00000" foes="00000" cont="0"/>
    </junction>
    <junction id="J4" type="unregulated" x="1500.00" y="0.00" incLanes="Ei2_0 E3_0 E3_1 E3_2 E3_3" intLanes=":J4_0_0 :J4_1_0 :J4_1_1 :J4_1_2 :J4_1_3" shape="1424.96,0.00 1424.96,-16.00 1423.86,-16.01 1423.47,-16.03 1423.08,-16.07 1422.61,-16.14 1421.99,-16.25 1421.46,-13.09 1421.70,-12.80 1421.70,0.00"/>
    <junction id="J5" type="priority" x="1700.00" y="0.00" incLanes="E4_0 E4_1 E4_2 E4_3 E4_4" intLanes=":J5_0_0 :J5_1_0 :J5_1_1 :J5_1_2 :J5_1_3" shape="1752.70,0.00 1752.70,-12.80 1753.04,-13.26 1752.26,-16.36 1751.18,-16.11 1750.80,-16.05 1750.41,-16.01 1749.94,-16.00 1749.31,-16.00 1749.31,0.00">
        <request index="0" response="00000" foes="00000" cont="0"/>
        <request index="1" response="00000" foes="00000" cont="0"/>
        <request index="2" response="00000" foes="00000" cont="0"/>
        <request index="3" response="00000" foes="00000" cont="0"/>
        <request index="4" response="00000" foes="00000" cont="0"/>
    </junction>
    <junction id="J6" type="unregulated" x="2500.00" y="0.00" incLanes="Ei3_0 E5_0 E5_1 E5_2 E5_3" intLanes=":J6_0_0 :J6_1_0 :J6_1_1 :J6_1_2 :J6_1_3" shape="2424.96,0.00 2424.96,-16.00 2423.86,-16.01 2423.47,-16.03 2423.08,-16.07 2422.61,-16.14 2421.99,-16.25 2421.46,-13.09 2421.70,-12.80 2421.70,0.00"/>
    <junction id="J7" type="priority" x="2700.00" y="0.00" incLanes="E6_0 E6_1 E6_2 E6_3 E6_4" intLanes=":J7_0_0 :J7_1_0 :J7_1_1 :J7_1_2 :J7_1_3" shape="2752.70,0.00 2752.70,-12.80 2753.04,-13.26 2752.26,-16.36 2751.18,-16.11 2750.80,-16.05 2750.41,-16.01 2749.94,-16.00 2749.31,-16.00 2749.31,0.00">
        <request index="0" response="00000" foes="00000" cont="0"/>
        <request index="1" response="00000" foes="00000" cont="0"/>
        <request index="2" response="00000" foes="00000" cont="0"/>
        <request index="3" response="00000" foes="00000" cont="0"/>
        <request index="4" response="00000" foes="00000" cont="0"/>
    </junction>
    <junction id="J8" type="priority" x="3500.00" y="0.00" incLanes="E7_0 E7_1 E7_2 E7_3" intLanes=":J8_0_0 :J8_0_1 :J8_0_2" shape="3504.00,-3.40 3504.00,-13.00 3496.00,-12.80 3496.00,0.00 3499.04,-0.88 3500.96,-2.52 3502.20,-3.15">
        <request index="0" response="000" foes="000" cont="0"/>
        <request index="1" response="000" foes="000" cont="0"/>
        <request index="2" response="000" foes="000" cont="0"/>
    </junction>
    <junction id="J9" type="dead_end" x="4000.00" y="0.00" incLanes="E8_0 E8_1 E8_2" intLanes="" shape="4000.00,-9.80 4000.00,-3.40" customShape="1"/>
    <junction id="i1" type="dead_end" x="200.00" y="-50.00" incLanes="" intLanes="" shape="200.00,-50.00 200.53,-53.16"/>
    <junction id="i2" type="dead_end" x="1200.00" y="-50.00" incLanes="" intLanes="" shape="1200.00,-50.00 1200.53,-53.16"/>
    <junction id="i3" type="dead_end" x="2200.00" y="-50.00" incLanes="" intLanes="" shape="2200.00,-50.00 2200.53,-53.16"/>
    <junction id="o1" type="dead_end" x="900.00" y="-50.00" incLanes="Eo1_0" intLanes="" shape="899.22,-53.10 900.00,-50.00"/>
    <junction id="o2" type="dead_end" x="1900.00" y="-50.00" incLanes="Eo2_0" intLanes="" shape="1899.22,-53.10 1900.00,-50.00"/>
    <junction id="o3" type="dead_end" x="2900.00" y="-50.00" incLanes="Eo3_0" intLanes="" shape="2899.22,-53.10 2900.00,-50.00"/>

    <connection from="E0" to="E1" fromLane="0" toLane="0" via=":J1_0_0" dir="s" state="M"/>
    <connection from="E0" to="E1" fromLane="1" toLane="1" via=":J1_0_1" dir="s" state="M"/>
    <connection from="E0" to="E1" fromLane="2" toLane="2" via=":J1_0_2" dir="s" state="M"/>
    <connection from="E0" to="E1" fromLane="3" toLane="3" via=":J1_0_3" dir="s" state="M"/>
    <connection from="E1" to="E2" fromLane="0" toLane="1" via=":J2_1_0" dir="s" state="M"/>
    <connection from="E1" to="E2" fromLane="1" toLane="2" via=":J2_1_1" dir="s" state="M"/>
    <connection from="E1" to="E2" fromLane="2" toLane="3" via=":J2_1_2" dir="s" state="M"/>
    <connection from="E1" to="E2" fromLane="3" toLane="4" via=":J2_1_3" dir="s" state="M"/>
    <connection from="E2" to="Eo1" fromLane="0" toLane="0" via=":J3_0_0" dir="R" state="M"/>
    <connection from="E2" to="E3" fromLane="1" toLane="0" via=":J3_1_0" dir="s" state="M"/>
    <connection from="E2" to="E3" fromLane="2" toLane="1" via=":J3_1_1" dir="s" state="M"/>
    <connection from="E2" to="E3" fromLane="3" toLane="2" via=":J3_1_2" dir="s" state="M"/>
    <connection from="E2" to="E3" fromLane="4" toLane="3" via=":J3_1_3" dir="s" state="M"/>
    <connection from="E3" to="E4" fromLane="0" toLane="1" via=":J4_1_0" dir="s" state="M"/>
    <connection from="E3" to="E4" fromLane="1" toLane="2" via=":J4_1_1" dir="s" state="M"/>
    <connection from="E3" to="E4" fromLane="2" toLane="3" via=":J4_1_2" dir="s" state="M"/>
    <connection from="E3" to="E4" fromLane="3" toLane="4" via=":J4_1_3" dir="s" state="M"/>
    <connection from="E4" to="Eo2" fromLane="0" toLane="0" via=":J5_0_0" dir="R" state="M"/>
    <connection from="E4" to="E5" fromLane="1" toLane="0" via=":J5_1_0" dir="s" state="M"/>
    <connection from="E4" to="E5" fromLane="2" toLane="1" via=":J5_1_1" dir="s" state="M"/>
    <connection from="E4" to="E5" fromLane="3" toLane="2" via=":J5_1_2" dir="s" state="M"/>
    <connection from="E4" to="E5" fromLane="4" toLane="3" via=":J5_1_3" dir="s" state="M"/>
    <connection from="E5" to="E6" fromLane="0" toLane="1" via=":J6_1_0" dir="s" state="M"/>
    <connection from="E5" to="E6" fromLane="1" toLane="2" via=":J6_1_1" dir="s" state="M"/>
    <connection from="E5" to="E6" fromLane="2" toLane="3" via=":J6_1_2" dir="s" state="M"/>
    <connection from="E5" to="E6" fromLane="3" toLane="4" via=":J6_1_3" dir="s" state="M"/>
    <connection from="E6" to="Eo3" fromLane="0" toLane="0" via=":J7_0_0" dir="R" state="M"/>
    <connection from="E6" to="E7" fromLane="1" toLane="0" via=":J7_1_0" dir="s" state="M"/>
    <connection from="E6" to="E7" fromLane="2" toLane="1" via=":J7_1_1" dir="s" state="M"/>
    <connection from="E6" to="E7" fromLane="3" toLane="2" via=":J7_1_2" dir="s" state="M"/>
    <connection from="E6" to="E7" fromLane="4" toLane="3" via=":J7_1_3" dir="s" state="M"/>
    <connection from="E7" to="E8" fromLane="0" toLane="0" via=":J8_0_0" dir="s" state="M"/>
    <connection from="E7" to="E8" fromLane="1" toLane="1" via=":J8_0_1" dir="s" state="M"/>
    <connection from="E7" to="E8" fromLane="2" toLane="2" via=":J8_0_2" dir="s" state="M"/>
    <connection from="Ei1" to="E2" fromLane="0" toLane="0" via=":J2_0_0" dir="s" state="M"/>
    <connection from="Ei2" to="E4" fromLane="0" toLane="0" via=":J4_0_0" dir="s" state="M"/>
    <connection from="Ei3" to="E6" fromLane="0" toLane="0" via=":J6_0_0" dir="s" state="M"/>

    <connection from=":J1_0" to="E1" fromLane="0" toLane="0" dir="s" state="M"/>
    <connection from=":J1_0" to="E1" fromLane="1" toLane="1" dir="s" state="M"/>
    <connection from=":J1_0" to="E1" fromLane="2" toLane="2" dir="s" state="M"/>
    <connection from=":J1_0" to="E1" fromLane="3" toLane="3" dir="s" state="M"/>
    <connection from=":J2_0" to="E2" fromLane="0" toLane="0" dir="s" state="M"/>
    <connection from=":J2_1" to="E2" fromLane="0" toLane="1" dir="s" state="M"/>
    <connection from=":J2_1" to="E2" fromLane="1" toLane="2" dir="s" state="M"/>
    <connection from=":J2_1" to="E2" fromLane="2" toLane="3" dir="s" state="M"/>
    <connection from=":J2_1" to="E2" fromLane="3" toLane="4" dir="s" state="M"/>
    <connection from=":J3_0" to="Eo1" fromLane="0" toLane="0" dir="R" state="M"/>
    <connection from=":J3_1" to="E3" fromLane="0" toLane="0" dir="s" state="M"/>
    <connection from=":J3_1" to="E3" fromLane="1" toLane="1" dir="s" state="M"/>
    <connection from=":J3_1" to="E3" fromLane="2" toLane="2" dir="s" state="M"/>
    <connection from=":J3_1" to="E3" fromLane="3" toLane="3" dir="s" state="M"/>
    <connection from=":J4_0" to="E4" fromLane="0" toLane="0" dir="s" state="M"/>
    <connection from=":J4_1" to="E4" fromLane="0" toLane="1" dir="s" state="M"/>
    <connection from=":J4_1" to="E4" fromLane="1" toLane="2" dir="s" state="M"/>
    <connection from=":J4_1" to="E4" fromLane="2" toLane="3" dir="s" state="M"/>
    <connection from=":J4_1" to="E4" fromLane="3" toLane="4" dir="s" state="M"/>
    <connection from=":J5_0" to="Eo2" fromLane="0" toLane="0" dir="R" state="M"/>
    <connection from=":J5_1" to="E5" fromLane="0" toLane="0" dir="s" state="M"/>
    <connection from=":J5_1" to="E5" fromLane="1" toLane="1" dir="s" state="M"/>
    <connection from=":J5_1" to="E5" fromLane="2" toLane="2" dir="s" state="M"/>
    <connection from=":J5_1" to="E5" fromLane="3" toLane="3" dir="s" state="M"/>
    <connection from=":J6_0" to="E6" fromLane="0" toLane="0" dir="s" state="M"/>
    <connection from=":J6_1" to="E6" fromLane="0" toLane="1" dir="s" state="M"/>
    <connection from=":J6_1" to="E6" fromLane="1" toLane="2" dir="s" state="M"/>
    <connection from=":J6_1" to="E6" fromLane="2" toLane="3" dir="s" state="M"/>
    <connection from=":J6_1" to="E6" fromLane="3" toLane="4" dir="s" state="M"/>
    <connection from=":J7_0" to="Eo3" fromLane="0" toLane="0" dir="R" state="M"/>
    <connection from=":J7_1" to="E7" fromLane="0" toLane="0" dir="s" state="M"/>
    <connection from=":J7_1" to="E7" fromLane="1" toLane="1" dir="s" state="M"/>
    <connection from=":J7_1" to="E7" fromLane="2" toLane="2" dir="s" state="M"/>
    <connection from=":J7_1" to="E7" fromLane="3" toLane="3" dir="s" state="M"/>
    <connection from=":J8_0" to="E8" fromLane="0" toLane="0" dir="s" state="M"/>
    <connection from=":J8_0" to="E8" fromLane="1" toLane="1" dir="s" state="M"/>
    <connection from=":J8_0" to="E8" fromLane="2" toLane="2" dir="s" state="M"/>

</net>
