<routes xmlns:xsi="http://www.w3.org/2001/XMLSchema-instance" xsi:noNamespaceSchemaLocation="http://sumo.dlr.de/xsd/routes_file.xsd">

	<vTypeDistribution id="PTLDist">
	</vTypeDistribution>

	<vTypeDistribution id="NOPTLDist">
	</vTypeDistribution>

	<vTypeDistribution id="busDist">
	</vTypeDistribution>
</routes>
