<?xml version="1.0" encoding="UTF-8"?>

<!-- generated on 2025-02-02 01:19:40 by Eclipse SUMO netedit Version 1.19.0
<configuration xmlns:xsi="http://www.w3.org/2001/XMLSchema-instance" xsi:noNamespaceSchemaLocation="http://sumo.dlr.de/xsd/neteditConfiguration.xsd">

    <input>
        <sumo-net-file value="C:\PTL\SUMO\SUMOconfig\ziv.net.xml"/>
    </input>

    <output>
        <output-file value="C:\PTL\SUMO\SUMOconfig\ziv.net.xml"/>
    </output>

    <processing>
        <geometry.min-radius.fix.railways value="false"/>
        <geometry.max-grade.fix value="false"/>
        <offset.disable-normalization value="true"/>
        <lefthand value="0"/>
    </processing>

    <junctions>
        <no-turnarounds value="true"/>
        <junctions.corner-detail value="5"/>
        <junctions.limit-turn-speed value="5.50"/>
        <rectangular-lane-cut value="0"/>
    </junctions>

    <pedestrian>
        <walkingareas value="0"/>
    </pedestrian>

</configuration>
-->

<net version="1.16" junctionCornerDetail="5" limitTurnSpeed="5.50" xmlns:xsi="http://www.w3.org/2001/XMLSchema-instance" xsi:noNamespaceSchemaLocation="http://sumo.dlr.de/xsd/net_file.xsd">

    <location netOffset="0.00,0.00" convBoundary="-500.00,-50.00,1300.00,0.03" origBoundary="-10000000000.00,-10000000000.00,10000000000.00,10000000000.00" projParameter="!"/>

    <edge id=":J1_0" function="internal">
        <lane id=":J1_0_0" index="0" speed="25.00" length="0.10" shape="-0.00,-11.20 0.00,-11.20"/>
        <lane id=":J1_0_1" index="1" speed="25.00" length="0.10" shape="-0.00,-8.00 0.00,-8.00"/>
        <lane id=":J1_0_2" index="2" speed="25.00" length="0.10" shape="-0.00,-4.80 0.00,-4.80"/>
        <lane id=":J1_0_3" index="3" allow="private bus" speed="25.00" length="0.10" shape="-0.00,-1.60 0.00,-1.60"/>
    </edge>
    <edge id=":J2_0" function="internal">
        <lane id=":J2_0_0" index="0" speed="22.50" length="3.26" shape="421.72,-14.67 422.68,-14.51 423.34,-14.43 424.00,-14.40 424.96,-14.40"/>
    </edge>
    <edge id=":J2_1" function="internal">
        <lane id=":J2_1_0" index="0" speed="25.00" length="3.26" shape="421.70,-11.20 424.96,-11.20"/>
        <lane id=":J2_1_1" index="1" speed="25.00" length="3.26" shape="421.70,-8.00 424.96,-8.00"/>
        <lane id=":J2_1_2" index="2" speed="25.00" length="3.26" shape="421.70,-4.80 424.96,-4.80"/>
        <lane id=":J2_1_3" index="3" allow="private bus" speed="25.00" length="3.26" shape="421.70,-1.60 424.96,-1.60"/>
    </edge>
    <edge id=":J3_0" function="internal">
        <lane id=":J3_0_0" index="0" speed="22.50" length="3.38" shape="749.31,-14.40 750.31,-14.41 751.00,-14.45 751.67,-14.57 752.65,-14.81"/>
    </edge>
    <edge id=":J3_1" function="internal">
        <lane id=":J3_1_0" index="0" speed="25.00" length="3.39" shape="749.31,-11.20 752.70,-11.20"/>
        <lane id=":J3_1_1" index="1" speed="25.00" length="3.39" shape="749.31,-8.00 752.70,-8.00"/>
        <lane id=":J3_1_2" index="2" speed="25.00" length="3.39" shape="749.31,-4.80 752.70,-4.80"/>
        <lane id=":J3_1_3" index="3" allow="private bus" speed="25.00" length="3.39" shape="749.31,-1.60 752.70,-1.60"/>
    </edge>
    <edge id=":J4_0" function="internal">
        <lane id=":J4_0_0" index="0" speed="25.00" length="8.00" shape="996.00,-11.20 1004.00,-11.40"/>
        <lane id=":J4_0_1" index="1" speed="25.00" length="8.00" shape="996.00,-8.00 1004.00,-8.20"/>
        <lane id=":J4_0_2" index="2" speed="25.00" length="8.00" shape="996.00,-4.80 1004.00,-5.00"/>
    </edge>

    <edge id="E0" from="J0" to="J1" priority="-1" shape="-500.00,0.03 0.00,0.00">
        <lane id="E0_0" index="0" speed="25.00" length="500.00" shape="-500.00,-11.17 -0.00,-11.20"/>
        <lane id="E0_1" index="1" speed="25.00" length="500.00" shape="-500.00,-7.97 -0.00,-8.00"/>
        <lane id="E0_2" index="2" speed="25.00" length="500.00" shape="-500.00,-4.77 -0.00,-4.80"/>
        <lane id="E0_3" index="3" speed="25.00" length="500.00" shape="-500.00,-1.57 -0.00,-1.60"/>
    </edge>
    <edge id="E1" from="J1" to="J2" priority="-1">
        <lane id="E1_0" index="0" speed="25.00" length="421.70" shape="0.00,-11.20 421.70,-11.20"/>
        <lane id="E1_1" index="1" speed="25.00" length="421.70" shape="0.00,-8.00 421.70,-8.00"/>
        <lane id="E1_2" index="2" speed="25.00" length="421.70" shape="0.00,-4.80 421.70,-4.80"/>
        <lane id="E1_3" index="3" allow="private bus" speed="25.00" length="421.70" shape="0.00,-1.60 421.70,-1.60"/>
    </edge>
    <edge id="E2" from="J2" to="J3" priority="-1">
        <lane id="E2_0" index="0" speed="25.00" length="324.34" acceleration="1" shape="424.96,-14.40 749.31,-14.40"/>
        <lane id="E2_1" index="1" speed="25.00" length="324.34" shape="424.96,-11.20 749.31,-11.20"/>
        <lane id="E2_2" index="2" speed="25.00" length="324.34" shape="424.96,-8.00 749.31,-8.00"/>
        <lane id="E2_3" index="3" speed="25.00" length="324.34" shape="424.96,-4.80 749.31,-4.80"/>
        <lane id="E2_4" index="4" allow="private bus" speed="25.00" length="324.34" shape="424.96,-1.60 749.31,-1.60"/>
    </edge>
    <edge id="E3" from="J3" to="J4" priority="-1">
        <lane id="E3_0" index="0" speed="25.00" length="243.30" shape="752.70,-11.20 996.00,-11.20"/>
        <lane id="E3_1" index="1" speed="25.00" length="243.30" shape="752.70,-8.00 996.00,-8.00"/>
        <lane id="E3_2" index="2" speed="25.00" length="243.30" shape="752.70,-4.80 996.00,-4.80"/>
        <lane id="E3_3" index="3" allow="private bus" speed="25.00" length="243.30" shape="752.70,-1.60 996.00,-1.60"/>
    </edge>
    <edge id="E4" from="J4" to="J5" priority="-1" shape="1000.00,-3.40 1300.00,-3.40">
        <lane id="E4_0" index="0" speed="25.00" length="296.00" shape="1004.00,-11.40 1300.00,-11.40"/>
        <lane id="E4_1" index="1" speed="25.00" length="296.00" shape="1004.00,-8.20 1300.00,-8.20"/>
        <lane id="E4_2" index="2" speed="25.00" length="296.00" shape="1004.00,-5.00 1300.00,-5.00"/>
    </edge>
    <edge id="Ei1" from="i1" to="J2" priority="-1">
        <lane id="Ei1_0" index="0" speed="20.00" length="224.51" shape="200.26,-51.58 421.72,-14.67"/>
    </edge>
    <edge id="Eo1" from="J3" to="o1" priority="-1">
        <lane id="Eo1_0" index="0" speed="20.00" length="151.49" shape="752.65,-14.81 899.61,-51.55"/>
    </edge>

    <junction id="J0" type="dead_end" x="-500.00" y="0.00" incLanes="" intLanes="" shape="-500.00,0.03 -500.00,-12.77"/>
    <junction id="J1" type="priority" x="0.00" y="0.00" incLanes="E0_0 E0_1 E0_2 E0_3" intLanes=":J1_0_0 :J1_0_1 :J1_0_2 :J1_0_3" shape="0.00,0.00 0.00,-12.80 -0.00,0.00">
        <request index="0" response="0000" foes="0000" cont="0"/>
        <request index="1" response="0000" foes="0000" cont="0"/>
        <request index="2" response="0000" foes="0000" cont="0"/>
        <request index="3" response="0000" foes="0000" cont="0"/>
    </junction>
    <junction id="J2" type="unregulated" x="500.00" y="0.00" incLanes="Ei1_0 E1_0 E1_1 E1_2 E1_3" intLanes=":J2_0_0 :J2_1_0 :J2_1_1 :J2_1_2 :J2_1_3" shape="424.96,0.00 424.96,-16.00 423.86,-16.01 423.47,-16.03 423.08,-16.07 422.61,-16.14 421.99,-16.25 421.46,-13.09 421.70,-12.80 421.70,0.00"/>
    <junction id="J3" type="priority" x="700.00" y="0.00" incLanes="E2_0 E2_1 E2_2 E2_3 E2_4" intLanes=":J3_0_0 :J3_1_0 :J3_1_1 :J3_1_2 :J3_1_3" shape="752.70,0.00 752.70,-12.80 753.04,-13.26 752.26,-16.36 751.18,-16.11 750.80,-16.05 750.41,-16.01 749.94,-16.00 749.31,-16.00 749.31,0.00">
        <request index="0" response="00000" foes="00000" cont="0"/>
        <request index="1" response="00000" foes="00000" cont="0"/>
        <request index="2" response="00000" foes="00000" cont="0"/>
        <request index="3" response="00000" foes="00000" cont="0"/>
        <request index="4" response="00000" foes="00000" cont="0"/>
    </junction>
    <junction id="J4" type="priority" x="1000.00" y="0.00" incLanes="E3_0 E3_1 E3_2 E3_3" intLanes=":J4_0_0 :J4_0_1 :J4_0_2" shape="1004.00,-3.40 1004.00,-13.00 996.00,-12.80 996.00,0.00 999.04,-0.88 1000.96,-2.52 1002.20,-3.15">
        <request index="0" response="000" foes="000" cont="0"/>
        <request index="1" response="000" foes="000" cont="0"/>
        <request index="2" response="000" foes="000" cont="0"/>
    </junction>
    <junction id="J5" type="dead_end" x="1300.00" y="0.00" incLanes="E4_0 E4_1 E4_2" intLanes="" shape="1300.00,-13.00 1300.00,-3.40"/>
    <junction id="i1" type="dead_end" x="200.00" y="-50.00" incLanes="" intLanes="" shape="200.00,-50.00 200.53,-53.16"/>
    <junction id="o1" type="dead_end" x="900.00" y="-50.00" incLanes="Eo1_0" intLanes="" shape="899.22,-53.10 900.00,-50.00"/>

    <connection from="E0" to="E1" fromLane="0" toLane="0" via=":J1_0_0" dir="s" state="M"/>
    <connection from="E0" to="E1" fromLane="1" toLane="1" via=":J1_0_1" dir="s" state="M"/>
    <connection from="E0" to="E1" fromLane="2" toLane="2" via=":J1_0_2" dir="s" state="M"/>
    <connection from="E0" to="E1" fromLane="3" toLane="3" via=":J1_0_3" dir="s" state="M"/>
    <connection from="E1" to="E2" fromLane="0" toLane="1" via=":J2_1_0" dir="s" state="M"/>
    <connection from="E1" to="E2" fromLane="1" toLane="2" via=":J2_1_1" dir="s" state="M"/>
    <connection from="E1" to="E2" fromLane="2" toLane="3" via=":J2_1_2" dir="s" state="M"/>
    <connection from="E1" to="E2" fromLane="3" toLane="4" via=":J2_1_3" dir="s" state="M"/>
    <connection from="E2" to="Eo1" fromLane="0" toLane="0" via=":J3_0_0" dir="R" state="M"/>
    <connection from="E2" to="E3" fromLane="1" toLane="0" via=":J3_1_0" dir="s" state="M"/>
    <connection from="E2" to="E3" fromLane="2" toLane="1" via=":J3_1_1" dir="s" state="M"/>
    <connection from="E2" to="E3" fromLane="3" toLane="2" via=":J3_1_2" dir="s" state="M"/>
    <connection from="E2" to="E3" fromLane="4" toLane="3" via=":J3_1_3" dir="s" state="M"/>
    <connection from="E3" to="E4" fromLane="0" toLane="0" via=":J4_0_0" dir="s" state="M"/>
    <connection from="E3" to="E4" fromLane="1" toLane="1" via=":J4_0_1" dir="s" state="M"/>
    <connection from="E3" to="E4" fromLane="2" toLane="2" via=":J4_0_2" dir="s" state="M"/>
    <connection from="Ei1" to="E2" fromLane="0" toLane="0" via=":J2_0_0" dir="s" state="M"/>

    <connection from=":J1_0" to="E1" fromLane="0" toLane="0" dir="s" state="M"/>
    <connection from=":J1_0" to="E1" fromLane="1" toLane="1" dir="s" state="M"/>
    <connection from=":J1_0" to="E1" fromLane="2" toLane="2" dir="s" state="M"/>
    <connection from=":J1_0" to="E1" fromLane="3" toLane="3" dir="s" state="M"/>
    <connection from=":J2_0" to="E2" fromLane="0" toLane="0" dir="s" state="M"/>
    <connection from=":J2_1" to="E2" fromLane="0" toLane="1" dir="s" state="M"/>
    <connection from=":J2_1" to="E2" fromLane="1" toLane="2" dir="s" state="M"/>
    <connection from=":J2_1" to="E2" fromLane="2" toLane="3" dir="s" state="M"/>
    <connection from=":J2_1" to="E2" fromLane="3" toLane="4" dir="s" state="M"/>
    <connection from=":J3_0" to="Eo1" fromLane="0" toLane="0" dir="R" state="M"/>
    <connection from=":J3_1" to="E3" fromLane="0" toLane="0" dir="s" state="M"/>
    <connection from=":J3_1" to="E3" fromLane="1" toLane="1" dir="s" state="M"/>
    <connection from=":J3_1" to="E3" fromLane="2" toLane="2" dir="s" state="M"/>
    <connection from=":J3_1" to="E3" fromLane="3" toLane="3" dir="s" state="M"/>
    <connection from=":J4_0" to="E4" fromLane="0" toLane="0" dir="s" state="M"/>
    <connection from=":J4_0" to="E4" fromLane="1" toLane="1" dir="s" state="M"/>
    <connection from=":J4_0" to="E4" fromLane="2" toLane="2" dir="s" state="M"/>

</net>
